/*--------------------------------*- C++ -*----------------------------------*\
| =========                 |                                                 |
| \\      /  F ield         | OpenFOAM: The Open Source CFD Toolbox           |
|  \\    /   O peration     | Version:  2406                                  |
|   \\  /    A nd           | Website:  www.openfoam.com                      |
|    \\/     M anipulation  |                                                 |
\*---------------------------------------------------------------------------*/
FoamFile
{
    version     2.0;
    format      ascii;
    arch        "LSB;label=32;scalar=64";
    class       featureEdgeMesh;
    location    "constant/triSurface";
    object      branch_inlet.eMesh;
}
// * * * * * * * * * * * * * * * * * * * * * * * * * * * * * * * * * * * * * //


// points:

50
(
(0 2.414000034 2.299999952)
(0 2.414000034 2.391000032)
(-1.671642848e-17 2.414000034 2.209000111)
(0.09080516547 2.414000034 2.305951595)
(0.09099999815 2.414000034 2.299999952)
(0.09022147954 2.414000034 2.311877966)
(0.08925145864 2.414000034 2.317753315)
(0.08789925277 2.414000034 2.323552608)
(0.08617064357 2.414000034 2.329251051)
(0.08407303691 2.414000034 2.334824085)
(0.0816154182 2.414000034 2.340248346)
(0.0788083151 2.414000034 2.345499992)
(0.07566373795 2.414000034 2.35055685)
(0.07219515741 2.414000034 2.355397224)
(0.06841742247 2.414000034 2.360000372)
(0.06434671581 2.414000034 2.364346743)
(0.06000046805 2.414000034 2.368417501)
(0.05539729074 2.414000034 2.372195244)
(0.05055689067 2.414000034 2.375663757)
(0.04549999908 2.414000034 2.37880826)
(0.04024827108 2.414000034 2.3816154)
(0.03482419252 2.414000034 2.384073019)
(0.0292509906 2.414000034 2.386170626)
(0.02355253324 2.414000034 2.38789916)
(0.01775321923 2.414000034 2.389251471)
(0.01187788323 2.414000034 2.390221596)
(0.0059516849 2.414000034 2.390805244)
(0.0059516849 2.414000034 2.209194899)
(0.01187788323 2.414000034 2.209778547)
(0.01775321923 2.414000034 2.210748434)
(0.02355253324 2.414000034 2.212100744)
(0.0292509906 2.414000034 2.213829279)
(0.03482419252 2.414000034 2.215926886)
(0.04024827108 2.414000034 2.218384504)
(0.04549999908 2.414000034 2.221191645)
(0.05055689067 2.414000034 2.224336147)
(0.05539729074 2.414000034 2.227804899)
(0.06000046805 2.414000034 2.231582642)
(0.06434671581 2.414000034 2.2356534)
(0.06841742247 2.414000034 2.239999533)
(0.07219515741 2.414000034 2.24460268)
(0.07566373795 2.414000034 2.249443054)
(0.0788083151 2.414000034 2.254499912)
(0.0816154182 2.414000034 2.259751797)
(0.08407303691 2.414000034 2.265175819)
(0.08617064357 2.414000034 2.270749092)
(0.08789925277 2.414000034 2.276447535)
(0.08925145864 2.414000034 2.282246828)
(0.09022147954 2.414000034 2.288122177)
(0.09080516547 2.414000034 2.294048309)
)


// edges:

54
(
(3 4)
(5 3)
(6 5)
(7 6)
(8 7)
(9 8)
(10 9)
(11 10)
(12 11)
(13 12)
(14 13)
(15 14)
(16 15)
(17 16)
(18 17)
(19 18)
(20 19)
(21 20)
(22 21)
(23 22)
(24 23)
(25 24)
(26 25)
(1 26)
(1 1)
(2 2)
(27 2)
(28 27)
(29 28)
(30 29)
(31 30)
(32 31)
(33 32)
(34 33)
(35 34)
(36 35)
(37 36)
(38 37)
(39 38)
(40 39)
(41 40)
(42 41)
(43 42)
(44 43)
(45 44)
(46 45)
(47 46)
(48 47)
(49 48)
(4 49)
(0 1)
(0 0)
(0 2)
(2 0)
)

// * * * * * * * * * * * * * * * * * * * * * * * * * * * * * * * * * * * * * //


// ************************************************************************* //
