/*--------------------------------*- C++ -*----------------------------------*\
| =========                 |                                                 |
| \\      /  F ield         | OpenFOAM: The Open Source CFD Toolbox           |
|  \\    /   O peration     | Version:  2406                                  |
|   \\  /    A nd           | Website:  www.openfoam.com                      |
|    \\/     M anipulation  |                                                 |
\*---------------------------------------------------------------------------*/
FoamFile
{
    version     2.0;
    format      ascii;
    arch        "LSB;label=32;scalar=64";
    class       featureEdgeMesh;
    location    "constant/triSurface";
    object      branch_inlet.eMesh;
}
// * * * * * * * * * * * * * * * * * * * * * * * * * * * * * * * * * * * * * //


// points:

50
(
(0 1.437000036 0.2094146758)
(0 1.515808344 0.2549146712)
(-1.671642848e-17 1.358191729 0.1639146805)
(0.09080516547 1.442154288 0.2123905122)
(0.09099999815 1.437000036 0.2094146758)
(0.09022147954 1.447286606 0.215353623)
(0.08925145864 1.452374697 0.2182912827)
(0.08789925277 1.457397103 0.2211909443)
(0.08617064357 1.462332129 0.2240401655)
(0.08407303691 1.467158675 0.2268267721)
(0.0816154182 1.471855998 0.2295388132)
(0.0788083151 1.47640419 0.232164681)
(0.07566373795 1.480783582 0.2346931249)
(0.07219515741 1.484975457 0.2371133268)
(0.06841742247 1.488961935 0.2394149154)
(0.06434671581 1.492725849 0.2415880412)
(0.06000046805 1.496251225 0.2436233908)
(0.05539729074 1.499522805 0.2455122471)
(0.05055689067 1.50252676 0.2472465485)
(0.04549999908 1.505249977 0.2488188297)
(0.04024827108 1.507681012 0.2502223849)
(0.03482419252 1.509809375 0.2514511943)
(0.0292509906 1.511626005 0.2524999976)
(0.02355253324 1.513123035 0.2533642948)
(0.01775321923 1.514294028 0.2540404201)
(0.01187788323 1.515134096 0.254525423)
(0.0059516849 1.515639544 0.2548172474)
(0.0059516849 1.35836041 0.1640120894)
(0.01187788323 1.358865857 0.1643039286)
(0.01775321923 1.359705925 0.1647889465)
(0.02355253324 1.360877037 0.1654650569)
(0.0292509906 1.362374067 0.166329354)
(0.03482419252 1.364190578 0.1673781574)
(0.04024827108 1.366318941 0.1686069667)
(0.04549999908 1.368749976 0.170010522)
(0.05055689067 1.371473312 0.1715828031)
(0.05539729074 1.374477148 0.1733171046)
(0.06000046805 1.377748728 0.1752059609)
(0.06434671581 1.381274104 0.1772413105)
(0.06841742247 1.385038018 0.1794144362)
(0.07219515741 1.389024496 0.1817160249)
(0.07566373795 1.393216491 0.1841362268)
(0.0788083151 1.397595882 0.1866646707)
(0.0816154182 1.402143955 0.1892905384)
(0.08407303691 1.406841397 0.1920025796)
(0.08617064357 1.411667943 0.1947891861)
(0.08789925277 1.41660285 0.1976384073)
(0.08925145864 1.421625257 0.200538069)
(0.09022147954 1.426713467 0.2034757286)
(0.09080516547 1.431845665 0.2064388394)
)


// edges:

54
(
(3 4)
(5 3)
(6 5)
(7 6)
(8 7)
(9 8)
(10 9)
(11 10)
(12 11)
(13 12)
(14 13)
(15 14)
(16 15)
(17 16)
(18 17)
(19 18)
(20 19)
(21 20)
(22 21)
(23 22)
(24 23)
(25 24)
(26 25)
(1 26)
(1 1)
(2 2)
(27 2)
(28 27)
(29 28)
(30 29)
(31 30)
(32 31)
(33 32)
(34 33)
(35 34)
(36 35)
(37 36)
(38 37)
(39 38)
(40 39)
(41 40)
(42 41)
(43 42)
(44 43)
(45 44)
(46 45)
(47 46)
(48 47)
(49 48)
(4 49)
(0 1)
(0 0)
(0 2)
(2 0)
)

// * * * * * * * * * * * * * * * * * * * * * * * * * * * * * * * * * * * * * //


// ************************************************************************* //
