/*--------------------------------*- C++ -*----------------------------------*\
| =========                 |                                                 |
| \\      /  F ield         | OpenFOAM: The Open Source CFD Toolbox           |
|  \\    /   O peration     | Version:  2406                                  |
|   \\  /    A nd           | Website:  www.openfoam.com                      |
|    \\/     M anipulation  |                                                 |
\*---------------------------------------------------------------------------*/
FoamFile
{
    version     2.0;
    format      ascii;
    arch        "LSB;label=32;scalar=64";
    class       featureEdgeMesh;
    location    "constant/triSurface";
    object      branch_inlet.eMesh;
}
// * * * * * * * * * * * * * * * * * * * * * * * * * * * * * * * * * * * * * //


// points:

50
(
(0 1.379999995 2.299999952)
(3.851859889e-34 1.379999995 2.345180035)
(-8.299431476e-18 1.379999995 2.254820108)
(0.04508326575 1.379999995 2.302954912)
(0.04518000036 1.379999995 2.299999952)
(0.04479347914 1.379999995 2.305897236)
(0.04431187734 1.379999995 2.308814287)
(0.04364052787 1.379999995 2.31169343)
(0.04278230295 1.379999995 2.314522743)
(0.04174087569 1.379999995 2.317289591)
(0.04052070901 1.379999995 2.319982529)
(0.03912702948 1.379999995 2.322590113)
(0.03756579757 1.379999995 2.32510066)
(0.0358437039 1.379999995 2.32750392)
(0.03396812081 1.379999995 2.329789162)
(0.03194708377 1.379999995 2.331947088)
(0.02978924476 1.379999995 2.333968163)
(0.02750384063 1.379999995 2.335843801)
(0.0251006633 1.379999995 2.337565899)
(0.02259000018 1.379999995 2.339127064)
(0.01998260245 1.379999995 2.34052062)
(0.01728963666 1.379999995 2.341740847)
(0.01452263538 1.379999995 2.342782259)
(0.0116934441 1.379999995 2.343640566)
(0.008814181201 1.379999995 2.344311953)
(0.005897173192 1.379999995 2.344793558)
(0.002954913303 1.379999995 2.345083237)
(0.002954913303 1.379999995 2.254916668)
(0.005897173192 1.379999995 2.255206585)
(0.008814181201 1.379999995 2.25568819)
(0.0116934441 1.379999995 2.256359577)
(0.01452263538 1.379999995 2.257217646)
(0.01728963666 1.379999995 2.258259058)
(0.01998260245 1.379999995 2.259479284)
(0.02259000018 1.379999995 2.260873079)
(0.0251006633 1.379999995 2.262434244)
(0.02750384063 1.379999995 2.264156342)
(0.02978924476 1.379999995 2.266031981)
(0.03194708377 1.379999995 2.268052816)
(0.03396812081 1.379999995 2.270210743)
(0.0358437039 1.379999995 2.272496223)
(0.03756579757 1.379999995 2.274899244)
(0.03912702948 1.379999995 2.27741003)
(0.04052070901 1.379999995 2.280017376)
(0.04174087569 1.379999995 2.282710314)
(0.04278230295 1.379999995 2.2854774)
(0.04364052787 1.379999995 2.288306475)
(0.04431187734 1.379999995 2.291185856)
(0.04479347914 1.379999995 2.294102907)
(0.04508326575 1.379999995 2.297044992)
)


// edges:

54
(
(3 4)
(5 3)
(6 5)
(7 6)
(8 7)
(9 8)
(10 9)
(11 10)
(12 11)
(13 12)
(14 13)
(15 14)
(16 15)
(17 16)
(18 17)
(19 18)
(20 19)
(21 20)
(22 21)
(23 22)
(24 23)
(25 24)
(26 25)
(1 26)
(1 1)
(2 2)
(27 2)
(28 27)
(29 28)
(30 29)
(31 30)
(32 31)
(33 32)
(34 33)
(35 34)
(36 35)
(37 36)
(38 37)
(39 38)
(40 39)
(41 40)
(42 41)
(43 42)
(44 43)
(45 44)
(46 45)
(47 46)
(48 47)
(49 48)
(4 49)
(0 1)
(0 0)
(0 2)
(2 0)
)

// * * * * * * * * * * * * * * * * * * * * * * * * * * * * * * * * * * * * * //


// ************************************************************************* //
