/*--------------------------------*- C++ -*----------------------------------*\
| =========                 |                                                 |
| \\      /  F ield         | OpenFOAM: The Open Source CFD Toolbox           |
|  \\    /   O peration     | Version:  2406                                  |
|   \\  /    A nd           | Website:  www.openfoam.com                      |
|    \\/     M anipulation  |                                                 |
\*---------------------------------------------------------------------------*/
FoamFile
{
    version     2.0;
    format      ascii;
    arch        "LSB;label=32;scalar=64";
    class       featureEdgeMesh;
    location    "constant/triSurface";
    object      wall.eMesh;
}
// * * * * * * * * * * * * * * * * * * * * * * * * * * * * * * * * * * * * * //


// points:

695
(
(0 0.2300000042 0.03833333403)
(0 0.2300000042 3.588879921e-17)
(-4.225031443e-17 -0.2300000042 0.03833333403)
(-4.225031443e-17 -0.2300000042 0)
(0 0.2300000042 0.07666666806)
(-4.225031443e-17 -0.2300000042 0.07666666806)
(0 0.2300000042 0.1150000021)
(-4.225031443e-17 -0.2300000042 0.1150000021)
(0 0.2300000042 0.1533333361)
(-4.225031443e-17 -0.2300000042 0.1533333361)
(0 0.2300000042 0.1916666627)
(-4.225031443e-17 -0.2300000042 0.1916666627)
(0 0.2300000042 0.2300000042)
(-4.225031443e-17 -0.2300000042 0.2300000042)
(0 0.2300000042 0.2683333457)
(-4.225031443e-17 -0.2300000042 0.2683333457)
(0 0.2300000042 0.3066666722)
(-4.225031443e-17 -0.2300000042 0.3066666722)
(0 0.2300000042 0.3449999988)
(-4.225031443e-17 -0.2300000042 0.3449999988)
(0 0.2300000042 0.3833333254)
(-4.225031443e-17 -0.2300000042 0.3833333254)
(0 0.2300000042 0.421666652)
(-4.225031443e-17 -0.2300000042 0.421666652)
(0 0.2300000042 0.4600000083)
(-4.225031443e-17 -0.2300000042 0.4600000083)
(0 0.2300000042 0.4983333349)
(-4.225031443e-17 -0.2300000042 0.4983333349)
(0 0.2300000042 0.5366666913)
(-4.225031443e-17 -0.2300000042 0.5366666913)
(0 0.2300000042 0.5749999881)
(-4.225031443e-17 -0.2300000042 0.5749999881)
(0 0.2300000042 0.6133333445)
(-4.225031443e-17 -0.2300000042 0.6133333445)
(0 0.2300000042 0.6516666412)
(-4.225031443e-17 -0.2300000042 0.6516666412)
(0 0.2300000042 0.6899999976)
(-4.225031443e-17 -0.2300000042 0.6899999976)
(0 0.2300000042 0.728333354)
(-4.225031443e-17 -0.2300000042 0.728333354)
(0 0.2300000042 0.7666666508)
(-4.225031443e-17 -0.2300000042 0.7666666508)
(0 0.2300000042 0.8050000072)
(-4.225031443e-17 -0.2300000042 0.8050000072)
(0 0.2300000042 0.8433333039)
(-4.225031443e-17 -0.2300000042 0.8433333039)
(0 0.2300000042 0.8816666603)
(-4.225031443e-17 -0.2300000042 0.8816666603)
(0 0.2300000042 0.9200000167)
(-4.225031443e-17 -0.2300000042 0.9200000167)
(0 0.2300000042 0.9583333135)
(-4.225031443e-17 -0.2300000042 0.9583333135)
(0 0.2300000042 0.9966666698)
(-4.225031443e-17 -0.2300000042 0.9966666698)
(0 0.2300000042 1.034999967)
(-4.225031443e-17 -0.2300000042 1.034999967)
(0 0.2300000042 1.073333383)
(-4.225031443e-17 -0.2300000042 1.073333383)
(0 0.2300000042 1.111666679)
(-4.225031443e-17 -0.2300000042 1.111666679)
(0 0.2300000042 1.149999976)
(-4.225031443e-17 -0.2300000042 1.149999976)
(0 0.2300000042 1.188333392)
(-4.225031443e-17 -0.2300000042 1.188333392)
(0 0.2300000042 1.226666689)
(-4.225031443e-17 -0.2300000042 1.226666689)
(0 0.2300000042 1.264999986)
(-4.225031443e-17 -0.2300000042 1.264999986)
(0 0.2300000042 1.303333282)
(-4.225031443e-17 -0.2300000042 1.303333282)
(0 0.2300000042 1.341666698)
(-4.225031443e-17 -0.2300000042 1.341666698)
(0 0.2300000042 1.379999995)
(-4.225031443e-17 -0.2300000042 1.379999995)
(0 0.2300000042 1.418333292)
(-4.225031443e-17 -0.2300000042 1.418333292)
(0 0.2300000042 1.456666708)
(-4.225031443e-17 -0.2300000042 1.456666708)
(0 0.2300000042 1.495000005)
(-4.225031443e-17 -0.2300000042 1.495000005)
(0 0.2300000042 1.533333302)
(-4.225031443e-17 -0.2300000042 1.533333302)
(0 0.2300000042 1.571666718)
(-4.225031443e-17 -0.2300000042 1.571666718)
(0 0.2300000042 1.610000014)
(-4.225031443e-17 -0.2300000042 1.610000014)
(0 0.2300000042 1.648333311)
(-4.225031443e-17 -0.2300000042 1.648333311)
(0 0.2300000042 1.686666608)
(-4.225031443e-17 -0.2300000042 1.686666608)
(0 0.2300000042 1.725000024)
(-4.225031443e-17 -0.2300000042 1.725000024)
(0 0.2300000042 1.763333321)
(-4.225031443e-17 -0.2300000042 1.763333321)
(0 0.2300000042 1.801666617)
(-4.225031443e-17 -0.2300000042 1.801666617)
(0 0.2300000042 1.840000033)
(-4.225031443e-17 -0.2300000042 1.840000033)
(0 0.2300000042 1.87833333)
(-4.225031443e-17 -0.2300000042 1.87833333)
(0 0.2300000042 1.916666627)
(-4.225031443e-17 -0.2300000042 1.916666627)
(0 0.2300000042 1.955000043)
(-4.225031443e-17 -0.2300000042 1.955000043)
(0 0.2300000042 1.99333334)
(-4.225031443e-17 -0.2300000042 1.99333334)
(0 0.2300000042 2.031666756)
(-4.225031443e-17 -0.2300000042 2.031666756)
(0 0.2300000042 2.069999933)
(-4.225031443e-17 -0.2300000042 2.069999933)
(0 0.2300000042 2.108333349)
(-4.225031443e-17 -0.2300000042 2.108333349)
(0 0.2300000042 2.146666765)
(-4.225031443e-17 -0.2300000042 2.146666765)
(-4.225031443e-17 -0.2300000042 2.184999943)
(-4.225031443e-17 -0.2300000042 2.223333359)
(-4.225031443e-17 -0.2300000042 2.261666775)
(-4.225031443e-17 -0.2300000042 2.299999952)
(-4.225031443e-17 -0.2300000042 2.338333368)
(-4.225031443e-17 -0.2300000042 2.376666784)
(-4.225031443e-17 -0.2300000042 2.414999962)
(-4.225031443e-17 -0.2300000042 2.453333378)
(0 0.2300000042 2.491666555)
(1.408343814e-17 0.2300000042 2.453333378)
(-4.225031443e-17 -0.2300000042 2.491666555)
(0 0.2300000042 2.529999971)
(-4.225031443e-17 -0.2300000042 2.529999971)
(0 0.2300000042 2.568333387)
(-4.225031443e-17 -0.2300000042 2.568333387)
(0 0.2300000042 2.606666565)
(-4.225031443e-17 -0.2300000042 2.606666565)
(0 0.2300000042 2.644999981)
(-4.225031443e-17 -0.2300000042 2.644999981)
(0 0.2300000042 2.683333397)
(-4.225031443e-17 -0.2300000042 2.683333397)
(0 0.2300000042 2.721666574)
(-4.225031443e-17 -0.2300000042 2.721666574)
(0 0.2300000042 2.75999999)
(-4.225031443e-17 -0.2300000042 2.75999999)
(0 0.2300000042 2.798333406)
(-4.225031443e-17 -0.2300000042 2.798333406)
(0 0.2300000042 2.836666584)
(-4.225031443e-17 -0.2300000042 2.836666584)
(0 0.2300000042 2.875)
(-4.225031443e-17 -0.2300000042 2.875)
(0 0.2300000042 2.913333416)
(-4.225031443e-17 -0.2300000042 2.913333416)
(0 0.2300000042 2.951666594)
(-4.225031443e-17 -0.2300000042 2.951666594)
(0 0.2300000042 2.99000001)
(-4.225031443e-17 -0.2300000042 2.99000001)
(0 0.2300000042 3.028333426)
(-4.225031443e-17 -0.2300000042 3.028333426)
(0 0.2300000042 3.066666603)
(-4.225031443e-17 -0.2300000042 3.066666603)
(0 0.2300000042 3.105000019)
(-4.225031443e-17 -0.2300000042 3.105000019)
(0 0.2300000042 3.143333435)
(-4.225031443e-17 -0.2300000042 3.143333435)
(0 0.2300000042 3.181666613)
(-4.225031443e-17 -0.2300000042 3.181666613)
(0 0.2300000042 3.220000029)
(-4.225031443e-17 -0.2300000042 3.220000029)
(0 0.2300000042 3.258333445)
(-4.225031443e-17 -0.2300000042 3.258333445)
(0 0.2300000042 3.296666622)
(-4.225031443e-17 -0.2300000042 3.296666622)
(0 0.2300000042 3.335000038)
(-4.225031443e-17 -0.2300000042 3.335000038)
(0 0.2300000042 3.373333216)
(-4.225031443e-17 -0.2300000042 3.373333216)
(0 0.2300000042 3.411666632)
(-4.225031443e-17 -0.2300000042 3.411666632)
(0 0.2300000042 3.450000048)
(-4.225031443e-17 -0.2300000042 3.450000048)
(0 0.2300000042 3.488333225)
(-4.225031443e-17 -0.2300000042 3.488333225)
(0 0.2300000042 3.526666641)
(-4.225031443e-17 -0.2300000042 3.526666641)
(0 0.2300000042 3.565000057)
(-4.225031443e-17 -0.2300000042 3.565000057)
(0 0.2300000042 3.603333235)
(-4.225031443e-17 -0.2300000042 3.603333235)
(0 0.2300000042 3.641666651)
(-4.225031443e-17 -0.2300000042 3.641666651)
(0 0.2300000042 3.680000067)
(-4.225031443e-17 -0.2300000042 3.680000067)
(0 0.2300000042 3.718333244)
(-4.225031443e-17 -0.2300000042 3.718333244)
(0 0.2300000042 3.75666666)
(-4.225031443e-17 -0.2300000042 3.75666666)
(0 0.2300000042 3.795000076)
(-4.225031443e-17 -0.2300000042 3.795000076)
(0 0.2300000042 3.833333254)
(-4.225031443e-17 -0.2300000042 3.833333254)
(0 0.2300000042 3.87166667)
(-4.225031443e-17 -0.2300000042 3.87166667)
(0 0.2300000042 3.910000086)
(-4.225031443e-17 -0.2300000042 3.910000086)
(0 0.2300000042 3.948333263)
(-4.225031443e-17 -0.2300000042 3.948333263)
(0 0.2300000042 3.986666679)
(-4.225031443e-17 -0.2300000042 3.986666679)
(0 0.2300000042 4.025000095)
(-4.225031443e-17 -0.2300000042 4.025000095)
(0 0.2300000042 4.063333511)
(-4.225031443e-17 -0.2300000042 4.063333511)
(0 0.2300000042 4.101666451)
(-4.225031443e-17 -0.2300000042 4.101666451)
(0 0.2300000042 4.139999866)
(-4.225031443e-17 -0.2300000042 4.139999866)
(0 0.2300000042 4.178333282)
(-4.225031443e-17 -0.2300000042 4.178333282)
(0 0.2300000042 4.216666698)
(-4.225031443e-17 -0.2300000042 4.216666698)
(0 0.2300000042 4.255000114)
(-4.225031443e-17 -0.2300000042 4.255000114)
(0 0.2300000042 4.29333353)
(-4.225031443e-17 -0.2300000042 4.29333353)
(0 0.2300000042 4.33166647)
(-4.225031443e-17 -0.2300000042 4.33166647)
(0 0.2300000042 4.369999886)
(-4.225031443e-17 -0.2300000042 4.369999886)
(0 0.2300000042 4.408333302)
(-4.225031443e-17 -0.2300000042 4.408333302)
(0 0.2300000042 4.446666718)
(-4.225031443e-17 -0.2300000042 4.446666718)
(0 0.2300000042 4.485000134)
(-4.225031443e-17 -0.2300000042 4.485000134)
(0 0.2300000042 4.523333549)
(-4.225031443e-17 -0.2300000042 4.523333549)
(0 0.2300000042 4.561666489)
(-4.225031443e-17 -0.2300000042 4.561666489)
(0 0.2300000042 4.599999905)
(-4.225031443e-17 -0.2300000042 4.599999905)
(0 0.2300000042 4.638333321)
(-4.225031443e-17 -0.2300000042 4.638333321)
(0 0.2300000042 4.676666737)
(-4.225031443e-17 -0.2300000042 4.676666737)
(0 0.2300000042 4.715000153)
(-4.225031443e-17 -0.2300000042 4.715000153)
(0 0.2300000042 4.753333569)
(-4.225031443e-17 -0.2300000042 4.753333569)
(0 0.2300000042 4.791666508)
(-4.225031443e-17 -0.2300000042 4.791666508)
(0 0.2300000042 4.829999924)
(-4.225031443e-17 -0.2300000042 4.829999924)
(0 0.2300000042 4.86833334)
(-4.225031443e-17 -0.2300000042 4.86833334)
(0 0.2300000042 4.906666756)
(-4.225031443e-17 -0.2300000042 4.906666756)
(0 0.2300000042 4.945000172)
(-4.225031443e-17 -0.2300000042 4.945000172)
(0 0.2300000042 4.983333111)
(-4.225031443e-17 -0.2300000042 4.983333111)
(0 0.2300000042 5.021666527)
(-4.225031443e-17 -0.2300000042 5.021666527)
(0 0.2300000042 5.059999943)
(-4.225031443e-17 -0.2300000042 5.059999943)
(0 0.2300000042 5.098333359)
(-4.225031443e-17 -0.2300000042 5.098333359)
(0 0.2300000042 5.136666775)
(-4.225031443e-17 -0.2300000042 5.136666775)
(0 0.2300000042 5.175000191)
(-4.225031443e-17 -0.2300000042 5.175000191)
(0 0.2300000042 5.21333313)
(-4.225031443e-17 -0.2300000042 5.21333313)
(0 0.2300000042 5.251666546)
(-4.225031443e-17 -0.2300000042 5.251666546)
(0 0.2300000042 5.289999962)
(-4.225031443e-17 -0.2300000042 5.289999962)
(0 0.2300000042 5.328333378)
(-4.225031443e-17 -0.2300000042 5.328333378)
(0 0.2300000042 5.366666794)
(-4.225031443e-17 -0.2300000042 5.366666794)
(0 0.2300000042 5.40500021)
(-4.225031443e-17 -0.2300000042 5.40500021)
(0 0.2300000042 5.443333149)
(-4.225031443e-17 -0.2300000042 5.443333149)
(0 0.2300000042 5.481666565)
(-4.225031443e-17 -0.2300000042 5.481666565)
(0 0.2300000042 5.519999981)
(-4.225031443e-17 -0.2300000042 5.519999981)
(0 0.2300000042 5.558333397)
(-4.225031443e-17 -0.2300000042 5.558333397)
(0 0.2300000042 5.596666813)
(-4.225031443e-17 -0.2300000042 5.596666813)
(0 0.2300000042 5.635000229)
(-4.225031443e-17 -0.2300000042 5.635000229)
(0 0.2300000042 5.673333168)
(-4.225031443e-17 -0.2300000042 5.673333168)
(0 0.2300000042 5.711666584)
(-4.225031443e-17 -0.2300000042 5.711666584)
(0 0.2300000042 5.75)
(-4.225031443e-17 -0.2300000042 5.75)
(0 0.2300000042 5.788333416)
(-4.225031443e-17 -0.2300000042 5.788333416)
(0 0.2300000042 5.826666832)
(-4.225031443e-17 -0.2300000042 5.826666832)
(0 0.2300000042 5.864999771)
(-4.225031443e-17 -0.2300000042 5.864999771)
(0 0.2300000042 5.903333187)
(-4.225031443e-17 -0.2300000042 5.903333187)
(0 0.2300000042 5.941666603)
(-4.225031443e-17 -0.2300000042 5.941666603)
(0 0.2300000042 5.980000019)
(-4.225031443e-17 -0.2300000042 5.980000019)
(0 0.2300000042 6.018333435)
(-4.225031443e-17 -0.2300000042 6.018333435)
(0 0.2300000042 6.056666851)
(-4.225031443e-17 -0.2300000042 6.056666851)
(0 0.2300000042 6.09499979)
(-4.225031443e-17 -0.2300000042 6.09499979)
(0 0.2300000042 6.133333206)
(-4.225031443e-17 -0.2300000042 6.133333206)
(0 0.2300000042 6.171666622)
(-4.225031443e-17 -0.2300000042 6.171666622)
(0 0.2300000042 6.210000038)
(-4.225031443e-17 -0.2300000042 6.210000038)
(0 0.2300000042 6.248333454)
(-4.225031443e-17 -0.2300000042 6.248333454)
(0 0.2300000042 6.28666687)
(-4.225031443e-17 -0.2300000042 6.28666687)
(0 0.2300000042 6.324999809)
(-4.225031443e-17 -0.2300000042 6.324999809)
(0 0.2300000042 6.363333225)
(-4.225031443e-17 -0.2300000042 6.363333225)
(0 0.2300000042 6.401666641)
(-4.225031443e-17 -0.2300000042 6.401666641)
(0 0.2300000042 6.440000057)
(-4.225031443e-17 -0.2300000042 6.440000057)
(0 0.2300000042 6.478333473)
(-4.225031443e-17 -0.2300000042 6.478333473)
(0 0.2300000042 6.516666889)
(-4.225031443e-17 -0.2300000042 6.516666889)
(0 0.2300000042 6.554999828)
(-4.225031443e-17 -0.2300000042 6.554999828)
(0 0.2300000042 6.593333244)
(-4.225031443e-17 -0.2300000042 6.593333244)
(0 0.2300000042 6.63166666)
(-4.225031443e-17 -0.2300000042 6.63166666)
(0 0.2300000042 6.670000076)
(-4.225031443e-17 -0.2300000042 6.670000076)
(0 0.2300000042 6.708333492)
(-4.225031443e-17 -0.2300000042 6.708333492)
(0 0.2300000042 6.746666431)
(-4.225031443e-17 -0.2300000042 6.746666431)
(0 0.2300000042 6.784999847)
(-4.225031443e-17 -0.2300000042 6.784999847)
(0 0.2300000042 6.823333263)
(-4.225031443e-17 -0.2300000042 6.823333263)
(0 0.2300000042 6.861666679)
(-4.225031443e-17 -0.2300000042 6.861666679)
(0 0.2300000042 6.900000095)
(-4.225031443e-17 -0.2300000042 6.900000095)
(0.02259000018 0.2288879454 2.260873079)
(-8.299431476e-18 0.2300000042 2.254820108)
(3.851859889e-34 0.2300000042 2.345180035)
(0 0.2244292051 2.23131752)
(0 0.2262914777 2.234143972)
(3.851859889e-34 0.2539583445 2.345180035)
(-8.299431476e-18 0.2539583445 2.254820108)
(3.851859889e-34 0.2779166698 2.345180035)
(-8.299431476e-18 0.2779166698 2.254820108)
(3.851859889e-34 0.3018749952 2.345180035)
(-8.299431476e-18 0.3018749952 2.254820108)
(3.851859889e-34 0.3258333206 2.345180035)
(-8.299431476e-18 0.3258333206 2.254820108)
(3.851859889e-34 0.3497916758 2.345180035)
(-8.299431476e-18 0.3497916758 2.254820108)
(3.851859889e-34 0.3737500012 2.345180035)
(-8.299431476e-18 0.3737500012 2.254820108)
(3.851859889e-34 0.3977083266 2.345180035)
(-8.299431476e-18 0.3977083266 2.254820108)
(3.851859889e-34 0.421666652 2.345180035)
(-8.299431476e-18 0.421666652 2.254820108)
(3.851859889e-34 0.4456250072 2.345180035)
(-8.299431476e-18 0.4456250072 2.254820108)
(3.851859889e-34 0.4695833325 2.345180035)
(-8.299431476e-18 0.4695833325 2.254820108)
(3.851859889e-34 0.4935416579 2.345180035)
(-8.299431476e-18 0.4935416579 2.254820108)
(3.851859889e-34 0.5174999833 2.345180035)
(-8.299431476e-18 0.5174999833 2.254820108)
(3.851859889e-34 0.5414583087 2.345180035)
(-8.299431476e-18 0.5414583087 2.254820108)
(3.851859889e-34 0.5654166937 2.345180035)
(-8.299431476e-18 0.5654166937 2.254820108)
(3.851859889e-34 0.5893750191 2.345180035)
(-8.299431476e-18 0.5893750191 2.254820108)
(3.851859889e-34 0.6133333445 2.345180035)
(-8.299431476e-18 0.6133333445 2.254820108)
(3.851859889e-34 0.6372916698 2.345180035)
(-8.299431476e-18 0.6372916698 2.254820108)
(3.851859889e-34 0.6612499952 2.345180035)
(-8.299431476e-18 0.6612499952 2.254820108)
(3.851859889e-34 0.6852083206 2.345180035)
(-8.299431476e-18 0.6852083206 2.254820108)
(3.851859889e-34 0.709166646 2.345180035)
(-8.299431476e-18 0.709166646 2.254820108)
(3.851859889e-34 0.7331249714 2.345180035)
(-8.299431476e-18 0.7331249714 2.254820108)
(3.851859889e-34 0.7570833564 2.345180035)
(-8.299431476e-18 0.7570833564 2.254820108)
(3.851859889e-34 0.7810416818 2.345180035)
(-8.299431476e-18 0.7810416818 2.254820108)
(3.851859889e-34 0.8050000072 2.345180035)
(-8.299431476e-18 0.8050000072 2.254820108)
(3.851859889e-34 0.8289583325 2.345180035)
(-8.299431476e-18 0.8289583325 2.254820108)
(3.851859889e-34 0.8529166579 2.345180035)
(-8.299431476e-18 0.8529166579 2.254820108)
(3.851859889e-34 0.8768749833 2.345180035)
(-8.299431476e-18 0.8768749833 2.254820108)
(3.851859889e-34 0.9008333087 2.345180035)
(-8.299431476e-18 0.9008333087 2.254820108)
(3.851859889e-34 0.9247916937 2.345180035)
(-8.299431476e-18 0.9247916937 2.254820108)
(3.851859889e-34 0.9487500191 2.345180035)
(-8.299431476e-18 0.9487500191 2.254820108)
(3.851859889e-34 0.9727083445 2.345180035)
(-8.299431476e-18 0.9727083445 2.254820108)
(3.851859889e-34 0.9966666698 2.345180035)
(-8.299431476e-18 0.9966666698 2.254820108)
(3.851859889e-34 1.020624995 2.345180035)
(-8.299431476e-18 1.020624995 2.254820108)
(3.851859889e-34 1.044583321 2.345180035)
(-8.299431476e-18 1.044583321 2.254820108)
(3.851859889e-34 1.068541646 2.345180035)
(-8.299431476e-18 1.068541646 2.254820108)
(3.851859889e-34 1.092499971 2.345180035)
(-8.299431476e-18 1.092499971 2.254820108)
(3.851859889e-34 1.116458297 2.345180035)
(-8.299431476e-18 1.116458297 2.254820108)
(3.851859889e-34 1.140416622 2.345180035)
(-8.299431476e-18 1.140416622 2.254820108)
(3.851859889e-34 1.164374948 2.345180035)
(-8.299431476e-18 1.164374948 2.254820108)
(3.851859889e-34 1.188333392 2.345180035)
(-8.299431476e-18 1.188333392 2.254820108)
(3.851859889e-34 1.212291718 2.345180035)
(-8.299431476e-18 1.212291718 2.254820108)
(3.851859889e-34 1.236250043 2.345180035)
(-8.299431476e-18 1.236250043 2.254820108)
(3.851859889e-34 1.260208368 2.345180035)
(-8.299431476e-18 1.260208368 2.254820108)
(3.851859889e-34 1.284166694 2.345180035)
(-8.299431476e-18 1.284166694 2.254820108)
(3.851859889e-34 1.308125019 2.345180035)
(-8.299431476e-18 1.308125019 2.254820108)
(3.851859889e-34 1.332083344 2.345180035)
(-8.299431476e-18 1.332083344 2.254820108)
(3.851859889e-34 1.35604167 2.345180035)
(-8.299431476e-18 1.35604167 2.254820108)
(3.851859889e-34 1.379999995 2.345180035)
(-8.299431476e-18 1.379999995 2.254820108)
(0 0.2295126468 2.337457657)
(0.2300000042 -5.633375257e-17 0)
(0.2295075506 0.01504271943 0)
(0.2280323207 0.03002102487 0)
(0.2255806178 0.04487077519 0)
(0.2221629471 0.05952838063 0)
(0.2177939266 0.07393107563 0)
(0.2124922872 0.08801718801 0)
(0.2062807232 0.1017263979 0)
(0.1991858482 0.1150000021 0)
(0.1912380159 0.1277811527 0)
(0.1824712753 0.1400151253 0)
(0.1729231626 0.1516495347 0)
(0.1626345664 0.1626345664 0)
(0.1516495347 0.1729231626 0)
(0.1400151253 0.1824712753 0)
(0.1277811527 0.1912380159 0)
(0.1150000021 0.1991858482 0)
(0.1017263979 0.2062807232 0)
(0.08801718801 0.2124922872 0)
(0.07393107563 0.2177939266 0)
(0.05952838063 0.2221629471 0)
(0.04487077519 0.2255806178 0)
(0.03002102487 0.2280323207 0)
(0.01504271943 0.2295075506 0)
(0.01504271943 -0.2295075506 0)
(0.03002102487 -0.2280323207 0)
(0.04487077519 -0.2255806178 0)
(0.05952838063 -0.2221629471 0)
(0.07393107563 -0.2177939266 0)
(0.08801718801 -0.2124922872 0)
(0.1017263979 -0.2062807232 0)
(0.1150000021 -0.1991858482 0)
(0.1277811527 -0.1912380159 0)
(0.1400151253 -0.1824712753 0)
(0.1516495347 -0.1729231626 0)
(0.1626345664 -0.1626345664 0)
(0.1729231626 -0.1516495347 0)
(0.1824712753 -0.1400151253 0)
(0.1912380159 -0.1277811527 0)
(0.1991858482 -0.1150000021 0)
(0.2062807232 -0.1017263979 0)
(0.2124922872 -0.08801718801 0)
(0.2177939266 -0.07393107563 0)
(0.2221629471 -0.05952838063 0)
(0.2255806178 -0.04487077519 0)
(0.2280323207 -0.03002102487 0)
(0.2295075506 -0.01504271943 0)
(0.2295075506 0.01504271943 6.900000095)
(0.2300000042 -5.633375257e-17 6.900000095)
(0.2280323207 0.03002102487 6.900000095)
(0.2255806178 0.04487077519 6.900000095)
(0.2221629471 0.05952838063 6.900000095)
(0.2177939266 0.07393107563 6.900000095)
(0.2124922872 0.08801718801 6.900000095)
(0.2062807232 0.1017263979 6.900000095)
(0.1991858482 0.1150000021 6.900000095)
(0.1912380159 0.1277811527 6.900000095)
(0.1824712753 0.1400151253 6.900000095)
(0.1729231626 0.1516495347 6.900000095)
(0.1626345664 0.1626345664 6.900000095)
(0.1516495347 0.1729231626 6.900000095)
(0.1400151253 0.1824712753 6.900000095)
(0.1277811527 0.1912380159 6.900000095)
(0.1150000021 0.1991858482 6.900000095)
(0.1017263979 0.2062807232 6.900000095)
(0.08801718801 0.2124922872 6.900000095)
(0.07393107563 0.2177939266 6.900000095)
(0.05952838063 0.2221629471 6.900000095)
(0.04487077519 0.2255806178 6.900000095)
(0.03002102487 0.2280323207 6.900000095)
(0.01504271943 0.2295075506 6.900000095)
(0.01504271943 -0.2295075506 6.900000095)
(0.03002102487 -0.2280323207 6.900000095)
(0.04487077519 -0.2255806178 6.900000095)
(0.05952838063 -0.2221629471 6.900000095)
(0.07393107563 -0.2177939266 6.900000095)
(0.08801718801 -0.2124922872 6.900000095)
(0.1017263979 -0.2062807232 6.900000095)
(0.1150000021 -0.1991858482 6.900000095)
(0.1277811527 -0.1912380159 6.900000095)
(0.1400151253 -0.1824712753 6.900000095)
(0.1516495347 -0.1729231626 6.900000095)
(0.1626345664 -0.1626345664 6.900000095)
(0.1729231626 -0.1516495347 6.900000095)
(0.1824712753 -0.1400151253 6.900000095)
(0.1912380159 -0.1277811527 6.900000095)
(0.1991858482 -0.1150000021 6.900000095)
(0.2062807232 -0.1017263979 6.900000095)
(0.2124922872 -0.08801718801 6.900000095)
(0.2177939266 -0.07393107563 6.900000095)
(0.2221629471 -0.05952838063 6.900000095)
(0.2255806178 -0.04487077519 6.900000095)
(0.2280323207 -0.03002102487 6.900000095)
(0.2295075506 -0.01504271943 6.900000095)
(0 0.2290282696 2.33015728)
(0 0.2285488248 2.3232584)
(0 0.2280762345 2.316740513)
(0 0.2276123613 2.310583353)
(0 0.2271590829 2.304767132)
(0 0.2267181873 2.299273014)
(0 0.2262914777 2.294083357)
(0 0.2258806676 2.289180517)
(0 0.2254874557 2.284548998)
(0 0.2251134515 2.280173779)
(0 0.2247602046 2.276041746)
(0 0.2244292051 2.272139788)
(0 0.2241218984 2.268456936)
(0 0.2238395512 2.264982224)
(0 0.223583445 2.261706829)
(0 0.2233546823 2.258621454)
(0 0.2231542617 2.255719423)
(0 0.2229831219 2.252993584)
(0 0.2228420228 2.250438452)
(0 0.2227315903 2.248049021)
(0 0.2226523459 2.245821238)
(0 0.2226046473 2.243752241)
(0 0.2225887328 2.24183917)
(0 0.2226046473 2.240080833)
(0 0.2226523459 2.238476753)
(0 0.2227315903 2.23702693)
(0 0.2228420228 2.235732317)
(0 0.2229831219 2.23459506)
(0 0.2231542617 2.233618259)
(0 0.2233546823 2.232805729)
(0 0.223583445 2.232162476)
(0 0.2238395512 2.231694937)
(0 0.2241218984 2.231410265)
(0 0.2247602046 2.231426477)
(0 0.2251134515 2.231749296)
(0 0.2254874557 2.232299328)
(0 0.2258806676 2.233091831)
(0 0.2255393565 2.237548113)
(0 0.2255393565 2.245377064)
(0 0.2255393565 2.253206015)
(0 0.2255393565 2.261035204)
(0 0.2255393565 2.268864155)
(0 0.2255393565 2.276693344)
(0 0.2255393565 2.284522295)
(0 0.2255393565 2.292351484)
(0 0.2255393565 2.300180435)
(0 0.2262914777 2.305916786)
(-3.469446952e-18 0.2270379663 2.313817024)
(0 0.2277804464 2.325320482)
(0 0.2285205573 2.343511343)
(0 0.2292598784 2.376402378)
(0.04508326575 1.379999995 2.302954912)
(0.04518000036 1.379999995 2.299999952)
(0.04479347914 1.379999995 2.305897236)
(0.04431187734 1.379999995 2.308814287)
(0.04364052787 1.379999995 2.31169343)
(0.04278230295 1.379999995 2.314522743)
(0.04174087569 1.379999995 2.317289591)
(0.04052070901 1.379999995 2.319982529)
(0.03912702948 1.379999995 2.322590113)
(0.03756579757 1.379999995 2.32510066)
(0.0358437039 1.379999995 2.32750392)
(0.03396812081 1.379999995 2.329789162)
(0.03194708377 1.379999995 2.331947088)
(0.02978924476 1.379999995 2.333968163)
(0.02750384063 1.379999995 2.335843801)
(0.0251006633 1.379999995 2.337565899)
(0.02259000018 1.379999995 2.339127064)
(0.01998260245 1.379999995 2.34052062)
(0.01728963666 1.379999995 2.341740847)
(0.01452263538 1.379999995 2.342782259)
(0.0116934441 1.379999995 2.343640566)
(0.008814181201 1.379999995 2.344311953)
(0.005897173192 1.379999995 2.344793558)
(0.002954913303 1.379999995 2.345083237)
(0.002954913303 1.379999995 2.254916668)
(0.005897173192 1.379999995 2.255206585)
(0.008814181201 1.379999995 2.25568819)
(0.0116934441 1.379999995 2.256359577)
(0.01452263538 1.379999995 2.257217646)
(0.01728963666 1.379999995 2.258259058)
(0.01998260245 1.379999995 2.259479284)
(0.02259000018 1.379999995 2.260873079)
(0.0251006633 1.379999995 2.262434244)
(0.02750384063 1.379999995 2.264156342)
(0.02978924476 1.379999995 2.266031981)
(0.03194708377 1.379999995 2.268052816)
(0.03396812081 1.379999995 2.270210743)
(0.0358437039 1.379999995 2.272496223)
(0.03756579757 1.379999995 2.274899244)
(0.03912702948 1.379999995 2.27741003)
(0.04052070901 1.379999995 2.280017376)
(0.04174087569 1.379999995 2.282710314)
(0.04278230295 1.379999995 2.2854774)
(0.04364052787 1.379999995 2.288306475)
(0.04431187734 1.379999995 2.291185856)
(0.04479347914 1.379999995 2.294102907)
(0.04508326575 1.379999995 2.297044992)
(0.002954913303 0.2299810201 2.345083237)
(0.005897173192 0.2299243808 2.344793558)
(0.008814181201 0.2298310399 2.344311953)
(0.0116934441 0.2297025472 2.343640566)
(0.01452263538 0.2295410484 2.342782259)
(0.01728963666 0.2293492258 2.341740847)
(0.01998260245 0.2291302979 2.34052062)
(0.02259000018 0.2288879454 2.339127064)
(0.0251006633 0.2286262363 2.337565899)
(0.02750384063 0.2283495963 2.335843801)
(0.02978924476 0.2280627191 2.333968163)
(0.03194708377 0.2277704626 2.331947088)
(0.03396812081 0.2274778336 2.329789162)
(0.0358437039 0.2271898538 2.32750392)
(0.03756579757 0.2269114554 2.32510066)
(0.03912702948 0.2266474664 2.322590113)
(0.04052070901 0.2264024615 2.319982529)
(0.04174087569 0.2261806726 2.317289591)
(0.04278230295 0.2259860039 2.314522743)
(0.04364052787 0.2258218378 2.31169343)
(0.04431187734 0.2256910652 2.308814287)
(0.04479347914 0.2255959809 2.305897236)
(0.04508326575 0.2255382389 2.302954912)
(0.04518000036 0.2255188823 2.299999952)
(0.04508326575 0.2255382389 2.297044992)
(0.04479347914 0.2255959809 2.294102907)
(0.04431187734 0.2256910652 2.291185856)
(0.04364052787 0.2258218378 2.288306475)
(0.04278230295 0.2259860039 2.2854774)
(0.04174087569 0.2261806726 2.282710314)
(0.04052070901 0.2264024615 2.280017376)
(0.03912702948 0.2266474664 2.27741003)
(0.03756579757 0.2269114554 2.274899244)
(0.0358437039 0.2271898538 2.272496223)
(0.03396812081 0.2274778336 2.270210743)
(0.01998260245 0.2291302979 2.259479284)
(0.01728963666 0.2293492258 2.258259058)
(0.01452263538 0.2295410484 2.257217646)
(0.0116934441 0.2297025472 2.256359577)
(0.008814181201 0.2298310399 2.25568819)
(0.005897173192 0.2299243808 2.255206585)
(0.002954913303 0.2299810201 2.254916668)
(0.03194708377 0.2277704626 2.268052816)
(0.02978924476 0.2280627191 2.266031981)
(0.02750384063 0.2283495963 2.264156342)
(0.0251006633 0.2286262363 2.262434244)
)


// edges:

1838
(
(649 357)
(650 649)
(651 650)
(652 651)
(653 652)
(654 653)
(655 654)
(656 655)
(657 656)
(658 657)
(659 658)
(660 659)
(661 660)
(662 661)
(663 662)
(664 663)
(665 664)
(666 665)
(667 666)
(668 667)
(669 668)
(670 669)
(671 670)
(672 671)
(673 672)
(674 673)
(675 674)
(676 675)
(677 676)
(678 677)
(679 678)
(680 679)
(681 680)
(682 681)
(683 682)
(359 355)
(684 355)
(685 684)
(686 685)
(687 686)
(688 687)
(689 688)
(690 689)
(356 690)
(691 683)
(692 691)
(693 692)
(694 693)
(355 694)
(457 458)
(458 459)
(459 460)
(460 461)
(461 462)
(462 463)
(463 464)
(464 465)
(465 466)
(466 467)
(467 468)
(468 469)
(469 470)
(470 471)
(471 472)
(472 473)
(473 474)
(474 475)
(475 476)
(476 477)
(477 478)
(478 479)
(479 480)
(480 1)
(3 3)
(3 481)
(481 482)
(482 483)
(483 484)
(484 485)
(485 486)
(486 487)
(487 488)
(488 489)
(489 490)
(490 491)
(491 492)
(492 493)
(493 494)
(494 495)
(495 496)
(496 497)
(497 498)
(498 499)
(499 500)
(500 501)
(501 502)
(502 503)
(503 457)
(504 505)
(506 504)
(507 506)
(508 507)
(509 508)
(510 509)
(511 510)
(512 511)
(513 512)
(514 513)
(515 514)
(516 515)
(517 516)
(518 517)
(519 518)
(520 519)
(521 520)
(522 521)
(523 522)
(524 523)
(525 524)
(526 525)
(527 526)
(353 527)
(353 353)
(528 354)
(529 528)
(530 529)
(531 530)
(532 531)
(533 532)
(534 533)
(535 534)
(536 535)
(537 536)
(538 537)
(539 538)
(540 539)
(541 540)
(542 541)
(543 542)
(544 543)
(545 544)
(546 545)
(547 546)
(548 547)
(549 548)
(550 549)
(505 550)
(456 551)
(551 552)
(552 553)
(553 554)
(554 555)
(555 556)
(556 557)
(557 558)
(558 559)
(559 560)
(560 561)
(561 562)
(562 563)
(563 564)
(564 565)
(565 566)
(566 567)
(567 568)
(568 569)
(569 570)
(570 571)
(571 572)
(572 573)
(573 574)
(574 575)
(575 576)
(576 577)
(577 578)
(578 579)
(579 580)
(580 581)
(581 582)
(582 583)
(583 358)
(358 584)
(584 585)
(585 586)
(586 587)
(587 359)
(359 588)
(588 589)
(589 590)
(590 591)
(591 592)
(592 593)
(593 594)
(594 595)
(595 596)
(596 597)
(597 598)
(598 599)
(599 600)
(600 601)
(601 123)
(602 603)
(604 602)
(605 604)
(606 605)
(607 606)
(608 607)
(609 608)
(610 609)
(611 610)
(612 611)
(613 612)
(614 613)
(615 614)
(616 615)
(617 616)
(618 617)
(619 618)
(620 619)
(621 620)
(622 621)
(623 622)
(624 623)
(625 624)
(454 625)
(454 454)
(626 455)
(627 626)
(628 627)
(629 628)
(630 629)
(631 630)
(632 631)
(633 632)
(634 633)
(635 634)
(636 635)
(637 636)
(638 637)
(639 638)
(640 639)
(641 640)
(642 641)
(643 642)
(644 643)
(645 644)
(646 645)
(647 646)
(648 647)
(603 648)
(1 0)
(0 0)
(1 1)
(2 2)
(2 2)
(2 2)
(3 2)
(2 3)
(0 4)
(4 4)
(5 5)
(5 5)
(5 5)
(2 5)
(5 2)
(4 6)
(6 6)
(7 7)
(7 7)
(7 7)
(5 7)
(7 5)
(6 8)
(8 8)
(9 9)
(9 9)
(9 9)
(7 9)
(9 7)
(8 10)
(10 10)
(11 11)
(11 11)
(11 11)
(9 11)
(11 9)
(10 12)
(12 12)
(13 13)
(13 13)
(13 13)
(11 13)
(13 11)
(12 14)
(14 14)
(15 15)
(15 15)
(15 15)
(13 15)
(15 13)
(14 16)
(16 16)
(17 17)
(17 17)
(17 17)
(15 17)
(17 15)
(16 18)
(18 18)
(19 19)
(19 19)
(19 19)
(17 19)