FoamFile
{
    version     2.0;
    format      ascii;
    class       dictionary;
    object      surfaceFeatureExtractDict;
}

wall.stl
{
    extractionMethod    extractFromSurface;
    extractFromSurfaceCoeffs { includedAngle 150; }
    writeObj no;
}

main_inlet.stl
{
    extractionMethod    extractFromSurface;
    extractFromSurfaceCoeffs { includedAngle 150; }
    writeObj no;
}

outlet.stl
{
    extractionMethod    extractFromSurface;
    extractFromSurfaceCoeffs { includedAngle 150; }
    writeObj no;
}

branch_inlet.stl
{
    extractionMethod    extractFromSurface;
    extractFromSurfaceCoeffs { includedAngle 150; }
    writeObj no;
}
