/*--------------------------------*- C++ -*----------------------------------*\
| =========                 |                                                 |
| \\      /  F ield         | OpenFOAM: The Open Source CFD Toolbox           |
|  \\    /   O peration     | Version:  2406                                  |
|   \\  /    A nd           | Website:  www.openfoam.com                      |
|    \\/     M anipulation  |                                                 |
\*---------------------------------------------------------------------------*/
FoamFile
{
    version     2.0;
    format      ascii;
    arch        "LSB;label=32;scalar=64";
    class       featureEdgeMesh;
    location    "constant/triSurface";
    object      branch_inlet.eMesh;
}
// * * * * * * * * * * * * * * * * * * * * * * * * * * * * * * * * * * * * * //


// points:

50
(
(0 1.040099978 0.8968656659)
(0 1.090264559 0.9258281589)
(-1.064064957e-17 0.9899354577 0.8679031134)
(0.05780097842 1.043380976 0.8987599015)
(0.05792500079 1.040099978 0.8968656659)
(0.05742944404 1.046647787 0.9006460309)
(0.05681198835 1.049886584 0.9025159478)
(0.05595125258 1.053083539 0.9043616652)
(0.05485092849 1.056224823 0.9061753154)
(0.05351572111 1.059297085 0.90794909)
(0.05195135251 1.062287211 0.9096754193)
(0.05016452074 1.065182209 0.9113469124)
(0.04816287756 1.067969918 0.912956357)
(0.04595499113 1.07063818 0.9144968987)
(0.04355031997 1.073175788 0.9159619212)
(0.04095916077 1.075571656 0.9173452258)
(0.03819260746 1.077815652 0.9186407924)
(0.03526250646 1.079898238 0.9198431373)
(0.03218140453 1.081810236 0.9209470749)
(0.02896250039 1.083543777 0.9219478965)
(0.02561957203 1.085091233 0.9228413105)
(0.02216693759 1.086445928 0.9236235023)
(0.01861938089 1.087602258 0.9242911339)
(0.01499209274 1.088555217 0.9248412848)
(0.01130060665 1.089300632 0.9252716303)
(0.007560729515 1.089835405 0.9255803823)
(0.003788476344 1.090157151 0.9257661104)
(0.003788476344 0.9900428653 0.8679651618)
(0.007560729515 0.9903646708 0.8681508899)
(0.01130060665 0.990899384 0.8684596419)
(0.01499209274 0.9916447997 0.8688899875)
(0.01861938089 0.9925976992 0.8694401979)
(0.02216693759 0.9937540293 0.87010777)
(0.02561957203 0.9951087832 0.8708899617)
(0.02896250039 0.996656239 0.8717833757)
(0.03218140453 0.9983897209 0.8727841973)
(0.03526250646 1.000301838 0.873888135)
(0.03819260746 1.002384305 0.8750904799)
(0.04095916077 1.004628301 0.8763860464)
(0.04355031997 1.007024288 0.877769351)
(0.04595499113 1.009561777 0.8792343736)
(0.04816287756 1.012230039 0.8807749152)
(0.05016452074 1.015017748 0.8823844194)
(0.05195135251 1.017912745 0.8840558529)
(0.05351572111 1.020902872 0.8857821822)
(0.05485092849 1.023975134 0.8875559568)
(0.05595125258 1.027116418 0.889369607)
(0.05681198835 1.030313373 0.8912153244)
(0.05742944404 1.03355217 0.8930853009)
(0.05780097842 1.0368191 0.8949714303)
)


// edges:

54
(
(3 4)
(5 3)
(6 5)
(7 6)
(8 7)
(9 8)
(10 9)
(11 10)
(12 11)
(13 12)
(14 13)
(15 14)
(16 15)
(17 16)
(18 17)
(19 18)
(20 19)
(21 20)
(22 21)
(23 22)
(24 23)
(25 24)
(26 25)
(1 26)
(1 1)
(2 2)
(27 2)
(28 27)
(29 28)
(30 29)
(31 30)
(32 31)
(33 32)
(34 33)
(35 34)
(36 35)
(37 36)
(38 37)
(39 38)
(40 39)
(41 40)
(42 41)
(43 42)
(44 43)
(45 44)
(46 45)
(47 46)
(48 47)
(49 48)
(4 49)
(0 1)
(0 0)
(0 2)
(2 0)
)

// * * * * * * * * * * * * * * * * * * * * * * * * * * * * * * * * * * * * * //


// ************************************************************************* //
