/*--------------------------------*- C++ -*----------------------------------*\
| =========                 |                                                 |
| \\      /  F ield         | OpenFOAM: The Open Source CFD Toolbox           |
|  \\    /   O peration     | Version:  2406                                  |
|   \\  /    A nd           | Website:  www.openfoam.com                      |
|    \\/     M anipulation  |                                                 |
\*---------------------------------------------------------------------------*/
FoamFile
{
    version     2.0;
    format      ascii;
    arch        "LSB;label=32;scalar=64";
    class       featureEdgeMesh;
    location    "constant/triSurface";
    object      branch_inlet.eMesh;
}
// * * * * * * * * * * * * * * * * * * * * * * * * * * * * * * * * * * * * * //


// points:

50
(
(0 1.865720034 2.299999952)
(0 1.865720034 2.368155003)
(-1.251987074e-17 1.865720034 2.231844902)
(0.0680090785 1.865720034 2.304457664)
(0.06815499812 1.865720034 2.299999952)
(0.06757192314 1.865720034 2.308896065)
(0.06684542447 1.865720034 2.313296318)
(0.0658326745 1.865720034 2.317639828)
(0.06453802437 1.865720034 2.321907759)
(0.06296700984 1.865720034 2.326081753)
(0.06112636253 1.865720034 2.330144167)
(0.05902396142 1.865720034 2.334077597)
(0.05666881055 1.865720034 2.337864876)
(0.05407099798 1.865720034 2.34149003)
(0.05124164373 1.865720034 2.344937801)
(0.04819286242 1.865720034 2.34819293)
(0.04493771493 1.865720034 2.351241589)
(0.04149013385 1.865720034 2.354070902)
(0.03786488995 1.865720034 2.356668711)
(0.03407749906 1.865720034 2.359024048)
(0.03014418483 1.865720034 2.361126423)
(0.02608178928 1.865720034 2.362967014)
(0.02190770768 1.865720034 2.364537954)
(0.01763981208 1.865720034 2.365832567)
(0.01329638064 1.865720034 2.366845369)
(0.008896012791 1.865720034 2.367571831)
(0.004457550123 1.865720034 2.36800909)
(0.004457550123 1.865720034 2.231990814)
(0.008896012791 1.865720034 2.232428074)
(0.01329638064 1.865720034 2.233154535)
(0.01763981208 1.865720034 2.234167337)
(0.02190770768 1.865720034 2.23546195)
(0.02608178928 1.865720034 2.23703289)
(0.03014418483 1.865720034 2.23887372)
(0.03407749906 1.865720034 2.240976095)
(0.03786488995 1.865720034 2.243331194)
(0.04149013385 1.865720034 2.245929003)
(0.04493771493 1.865720034 2.248758316)
(0.04819286242 1.865720034 2.251807213)
(0.05124164373 1.865720034 2.255062342)
(0.05407099798 1.865720034 2.258509874)
(0.05666881055 1.865720034 2.262135029)
(0.05902396142 1.865720034 2.265922546)
(0.06112636253 1.865720034 2.269855738)
(0.06296700984 1.865720034 2.273918152)
(0.06453802437 1.865720034 2.278092384)
(0.0658326745 1.865720034 2.282360077)
(0.06684542447 1.865720034 2.286703587)
(0.06757192314 1.865720034 2.291104078)
(0.0680090785 1.865720034 2.295542479)
)


// edges:

54
(
(3 4)
(5 3)
(6 5)
(7 6)
(8 7)
(9 8)
(10 9)
(11 10)
(12 11)
(13 12)
(14 13)
(15 14)
(16 15)
(17 16)
(18 17)
(19 18)
(20 19)
(21 20)
(22 21)
(23 22)
(24 23)
(25 24)
(26 25)
(1 26)
(1 1)
(2 2)
(27 2)
(28 27)
(29 28)
(30 29)
(31 30)
(32 31)
(33 32)
(34 33)
(35 34)
(36 35)
(37 36)
(38 37)
(39 38)
(40 39)
(41 40)
(42 41)
(43 42)
(44 43)
(45 44)
(46 45)
(47 46)
(48 47)
(49 48)
(4 49)
(0 1)
(0 0)
(0 2)
(2 0)
)

// * * * * * * * * * * * * * * * * * * * * * * * * * * * * * * * * * * * * * //


// ************************************************************************* //
