/*--------------------------------*- C++ -*----------------------------------*\
| =========                 |                                                 |
| \\      /  F ield         | OpenFOAM: The Open Source CFD Toolbox           |
|  \\    /   O peration     | Version:  2406                                  |
|   \\  /    A nd           | Website:  www.openfoam.com                      |
|    \\/     M anipulation  |                                                 |
\*---------------------------------------------------------------------------*/
FoamFile
{
    version     2.0;
    format      ascii;
    arch        "LSB;label=32;scalar=64";
    class       featureEdgeMesh;
    location    "constant/triSurface";
    object      wall.eMesh;
}
// * * * * * * * * * * * * * * * * * * * * * * * * * * * * * * * * * * * * * //


// points:

722
(
(0 0.2300000042 0.03833333403)
(0 0.2300000042 3.588879921e-17)
(-4.225031443e-17 -0.2300000042 0.03833333403)
(-4.225031443e-17 -0.2300000042 0)
(0 0.2300000042 0.07666666806)
(-4.225031443e-17 -0.2300000042 0.07666666806)
(0 0.2300000042 0.1150000021)
(-4.225031443e-17 -0.2300000042 0.1150000021)
(0 0.2300000042 0.1533333361)
(-4.225031443e-17 -0.2300000042 0.1533333361)
(0 0.2300000042 0.1916666627)
(-4.225031443e-17 -0.2300000042 0.1916666627)
(0 0.2300000042 0.2300000042)
(-4.225031443e-17 -0.2300000042 0.2300000042)
(0 0.2300000042 0.2683333457)
(-4.225031443e-17 -0.2300000042 0.2683333457)
(0 0.2300000042 0.3066666722)
(-4.225031443e-17 -0.2300000042 0.3066666722)
(0 0.2300000042 0.3449999988)
(-4.225031443e-17 -0.2300000042 0.3449999988)
(0 0.2300000042 0.3833333254)
(-4.225031443e-17 -0.2300000042 0.3833333254)
(0 0.2300000042 0.421666652)
(-4.225031443e-17 -0.2300000042 0.421666652)
(0 0.2300000042 0.4600000083)
(-4.225031443e-17 -0.2300000042 0.4600000083)
(0 0.2300000042 0.4983333349)
(-4.225031443e-17 -0.2300000042 0.4983333349)
(0 0.2300000042 0.5366666913)
(-4.225031443e-17 -0.2300000042 0.5366666913)
(0 0.2300000042 0.5749999881)
(-4.225031443e-17 -0.2300000042 0.5749999881)
(0 0.2300000042 0.6133333445)
(-4.225031443e-17 -0.2300000042 0.6133333445)
(0 0.2300000042 0.6516666412)
(-4.225031443e-17 -0.2300000042 0.6516666412)
(0 0.2300000042 0.6899999976)
(-4.225031443e-17 -0.2300000042 0.6899999976)
(0 0.2300000042 0.728333354)
(-4.225031443e-17 -0.2300000042 0.728333354)
(0 0.2300000042 0.7666666508)
(-4.225031443e-17 -0.2300000042 0.7666666508)
(0 0.2300000042 0.8050000072)
(-4.225031443e-17 -0.2300000042 0.8050000072)
(0 0.2300000042 0.8433333039)
(-4.225031443e-17 -0.2300000042 0.8433333039)
(0 0.2300000042 0.8816666603)
(-4.225031443e-17 -0.2300000042 0.8816666603)
(0 0.2300000042 0.9200000167)
(-4.225031443e-17 -0.2300000042 0.9200000167)
(0 0.2300000042 0.9583333135)
(-4.225031443e-17 -0.2300000042 0.9583333135)
(0 0.2300000042 0.9966666698)
(-4.225031443e-17 -0.2300000042 0.9966666698)
(0 0.2300000042 1.034999967)
(-4.225031443e-17 -0.2300000042 1.034999967)
(0 0.2300000042 1.073333383)
(-4.225031443e-17 -0.2300000042 1.073333383)
(0 0.2300000042 1.111666679)
(-4.225031443e-17 -0.2300000042 1.111666679)
(0 0.2300000042 1.149999976)
(-4.225031443e-17 -0.2300000042 1.149999976)
(0 0.2300000042 1.188333392)
(-4.225031443e-17 -0.2300000042 1.188333392)
(0 0.2300000042 1.226666689)
(-4.225031443e-17 -0.2300000042 1.226666689)
(0 0.2300000042 1.264999986)
(-4.225031443e-17 -0.2300000042 1.264999986)
(0 0.2300000042 1.303333282)
(-4.225031443e-17 -0.2300000042 1.303333282)
(0 0.2300000042 1.341666698)
(-4.225031443e-17 -0.2300000042 1.341666698)
(0 0.2300000042 1.379999995)
(-4.225031443e-17 -0.2300000042 1.379999995)
(0 0.2300000042 1.418333292)
(-4.225031443e-17 -0.2300000042 1.418333292)
(0 0.2300000042 1.456666708)
(-4.225031443e-17 -0.2300000042 1.456666708)
(0 0.2300000042 1.495000005)
(-4.225031443e-17 -0.2300000042 1.495000005)
(0 0.2300000042 1.533333302)
(-4.225031443e-17 -0.2300000042 1.533333302)
(0 0.2300000042 1.571666718)
(-4.225031443e-17 -0.2300000042 1.571666718)
(0 0.2300000042 1.610000014)
(-4.225031443e-17 -0.2300000042 1.610000014)
(0 0.2300000042 1.648333311)
(-4.225031443e-17 -0.2300000042 1.648333311)
(0 0.2300000042 1.686666608)
(-4.225031443e-17 -0.2300000042 1.686666608)
(0 0.2300000042 1.725000024)
(-4.225031443e-17 -0.2300000042 1.725000024)
(0 0.2300000042 1.763333321)
(-4.225031443e-17 -0.2300000042 1.763333321)
(0 0.2300000042 1.801666617)
(-4.225031443e-17 -0.2300000042 1.801666617)
(0 0.2300000042 1.840000033)
(-4.225031443e-17 -0.2300000042 1.840000033)
(0 0.2300000042 1.87833333)
(-4.225031443e-17 -0.2300000042 1.87833333)
(0 0.2300000042 1.916666627)
(-4.225031443e-17 -0.2300000042 1.916666627)
(0 0.2300000042 1.955000043)
(-4.225031443e-17 -0.2300000042 1.955000043)
(0 0.2300000042 1.99333334)
(-4.225031443e-17 -0.2300000042 1.99333334)
(0 0.2300000042 2.031666756)
(-4.225031443e-17 -0.2300000042 2.031666756)
(0 0.2300000042 2.069999933)
(-4.225031443e-17 -0.2300000042 2.069999933)
(0 0.2300000042 2.108333349)
(-4.225031443e-17 -0.2300000042 2.108333349)
(0 0.2300000042 2.146666765)
(-4.225031443e-17 -0.2300000042 2.146666765)
(-4.225031443e-17 -0.2300000042 2.184999943)
(-4.225031443e-17 -0.2300000042 2.223333359)
(-4.225031443e-17 -0.2300000042 2.261666775)
(-4.225031443e-17 -0.2300000042 2.299999952)
(-4.225031443e-17 -0.2300000042 2.338333368)
(-4.225031443e-17 -0.2300000042 2.376666784)
(-4.225031443e-17 -0.2300000042 2.414999962)
(-4.225031443e-17 -0.2300000042 2.453333378)
(0 0.2300000042 2.491666555)
(1.408343814e-17 0.2300000042 2.453333378)
(-4.225031443e-17 -0.2300000042 2.491666555)
(0 0.2300000042 2.529999971)
(-4.225031443e-17 -0.2300000042 2.529999971)
(0 0.2300000042 2.568333387)
(-4.225031443e-17 -0.2300000042 2.568333387)
(0 0.2300000042 2.606666565)
(-4.225031443e-17 -0.2300000042 2.606666565)
(0 0.2300000042 2.644999981)
(-4.225031443e-17 -0.2300000042 2.644999981)
(0 0.2300000042 2.683333397)
(-4.225031443e-17 -0.2300000042 2.683333397)
(0 0.2300000042 2.721666574)
(-4.225031443e-17 -0.2300000042 2.721666574)
(0 0.2300000042 2.75999999)
(-4.225031443e-17 -0.2300000042 2.75999999)
(0 0.2300000042 2.798333406)
(-4.225031443e-17 -0.2300000042 2.798333406)
(0 0.2300000042 2.836666584)
(-4.225031443e-17 -0.2300000042 2.836666584)
(0 0.2300000042 2.875)
(-4.225031443e-17 -0.2300000042 2.875)
(0 0.2300000042 2.913333416)
(-4.225031443e-17 -0.2300000042 2.913333416)
(0 0.2300000042 2.951666594)
(-4.225031443e-17 -0.2300000042 2.951666594)
(0 0.2300000042 2.99000001)
(-4.225031443e-17 -0.2300000042 2.99000001)
(0 0.2300000042 3.028333426)
(-4.225031443e-17 -0.2300000042 3.028333426)
(0 0.2300000042 3.066666603)
(-4.225031443e-17 -0.2300000042 3.066666603)
(0 0.2300000042 3.105000019)
(-4.225031443e-17 -0.2300000042 3.105000019)
(0 0.2300000042 3.143333435)
(-4.225031443e-17 -0.2300000042 3.143333435)
(0 0.2300000042 3.181666613)
(-4.225031443e-17 -0.2300000042 3.181666613)
(0 0.2300000042 3.220000029)
(-4.225031443e-17 -0.2300000042 3.220000029)
(0 0.2300000042 3.258333445)
(-4.225031443e-17 -0.2300000042 3.258333445)
(0 0.2300000042 3.296666622)
(-4.225031443e-17 -0.2300000042 3.296666622)
(0 0.2300000042 3.335000038)
(-4.225031443e-17 -0.2300000042 3.335000038)
(0 0.2300000042 3.373333216)
(-4.225031443e-17 -0.2300000042 3.373333216)
(0 0.2300000042 3.411666632)
(-4.225031443e-17 -0.2300000042 3.411666632)
(0 0.2300000042 3.450000048)
(-4.225031443e-17 -0.2300000042 3.450000048)
(0 0.2300000042 3.488333225)
(-4.225031443e-17 -0.2300000042 3.488333225)
(0 0.2300000042 3.526666641)
(-4.225031443e-17 -0.2300000042 3.526666641)
(0 0.2300000042 3.565000057)
(-4.225031443e-17 -0.2300000042 3.565000057)
(0 0.2300000042 3.603333235)
(-4.225031443e-17 -0.2300000042 3.603333235)
(0 0.2300000042 3.641666651)
(-4.225031443e-17 -0.2300000042 3.641666651)
(0 0.2300000042 3.680000067)
(-4.225031443e-17 -0.2300000042 3.680000067)
(0 0.2300000042 3.718333244)
(-4.225031443e-17 -0.2300000042 3.718333244)
(0 0.2300000042 3.75666666)
(-4.225031443e-17 -0.2300000042 3.75666666)
(0 0.2300000042 3.795000076)
(-4.225031443e-17 -0.2300000042 3.795000076)
(0 0.2300000042 3.833333254)
(-4.225031443e-17 -0.2300000042 3.833333254)
(0 0.2300000042 3.87166667)
(-4.225031443e-17 -0.2300000042 3.87166667)
(0 0.2300000042 3.910000086)
(-4.225031443e-17 -0.2300000042 3.910000086)
(0 0.2300000042 3.948333263)
(-4.225031443e-17 -0.2300000042 3.948333263)
(0 0.2300000042 3.986666679)
(-4.225031443e-17 -0.2300000042 3.986666679)
(0 0.2300000042 4.025000095)
(-4.225031443e-17 -0.2300000042 4.025000095)
(0 0.2300000042 4.063333511)
(-4.225031443e-17 -0.2300000042 4.063333511)
(0 0.2300000042 4.101666451)
(-4.225031443e-17 -0.2300000042 4.101666451)
(0 0.2300000042 4.139999866)
(-4.225031443e-17 -0.2300000042 4.139999866)
(0 0.2300000042 4.178333282)
(-4.225031443e-17 -0.2300000042 4.178333282)
(0 0.2300000042 4.216666698)
(-4.225031443e-17 -0.2300000042 4.216666698)
(0 0.2300000042 4.255000114)
(-4.225031443e-17 -0.2300000042 4.255000114)
(0 0.2300000042 4.29333353)
(-4.225031443e-17 -0.2300000042 4.29333353)
(0 0.2300000042 4.33166647)
(-4.225031443e-17 -0.2300000042 4.33166647)
(0 0.2300000042 4.369999886)
(-4.225031443e-17 -0.2300000042 4.369999886)
(0 0.2300000042 4.408333302)
(-4.225031443e-17 -0.2300000042 4.408333302)
(0 0.2300000042 4.446666718)
(-4.225031443e-17 -0.2300000042 4.446666718)
(0 0.2300000042 4.485000134)
(-4.225031443e-17 -0.2300000042 4.485000134)
(0 0.2300000042 4.523333549)
(-4.225031443e-17 -0.2300000042 4.523333549)
(0 0.2300000042 4.561666489)
(-4.225031443e-17 -0.2300000042 4.561666489)
(0 0.2300000042 4.599999905)
(-4.225031443e-17 -0.2300000042 4.599999905)
(0 0.2300000042 4.638333321)
(-4.225031443e-17 -0.2300000042 4.638333321)
(0 0.2300000042 4.676666737)
(-4.225031443e-17 -0.2300000042 4.676666737)
(0 0.2300000042 4.715000153)
(-4.225031443e-17 -0.2300000042 4.715000153)
(0 0.2300000042 4.753333569)
(-4.225031443e-17 -0.2300000042 4.753333569)
(0 0.2300000042 4.791666508)
(-4.225031443e-17 -0.2300000042 4.791666508)
(0 0.2300000042 4.829999924)
(-4.225031443e-17 -0.2300000042 4.829999924)
(0 0.2300000042 4.86833334)
(-4.225031443e-17 -0.2300000042 4.86833334)
(0 0.2300000042 4.906666756)
(-4.225031443e-17 -0.2300000042 4.906666756)
(0 0.2300000042 4.945000172)
(-4.225031443e-17 -0.2300000042 4.945000172)
(0 0.2300000042 4.983333111)
(-4.225031443e-17 -0.2300000042 4.983333111)
(0 0.2300000042 5.021666527)
(-4.225031443e-17 -0.2300000042 5.021666527)
(0 0.2300000042 5.059999943)
(-4.225031443e-17 -0.2300000042 5.059999943)
(0 0.2300000042 5.098333359)
(-4.225031443e-17 -0.2300000042 5.098333359)
(0 0.2300000042 5.136666775)
(-4.225031443e-17 -0.2300000042 5.136666775)
(0 0.2300000042 5.175000191)
(-4.225031443e-17 -0.2300000042 5.175000191)
(0 0.2300000042 5.21333313)
(-4.225031443e-17 -0.2300000042 5.21333313)
(0 0.2300000042 5.251666546)
(-4.225031443e-17 -0.2300000042 5.251666546)
(0 0.2300000042 5.289999962)
(-4.225031443e-17 -0.2300000042 5.289999962)
(0 0.2300000042 5.328333378)
(-4.225031443e-17 -0.2300000042 5.328333378)
(0 0.2300000042 5.366666794)
(-4.225031443e-17 -0.2300000042 5.366666794)
(0 0.2300000042 5.40500021)
(-4.225031443e-17 -0.2300000042 5.40500021)
(0 0.2300000042 5.443333149)
(-4.225031443e-17 -0.2300000042 5.443333149)
(0 0.2300000042 5.481666565)
(-4.225031443e-17 -0.2300000042 5.481666565)
(0 0.2300000042 5.519999981)
(-4.225031443e-17 -0.2300000042 5.519999981)
(0 0.2300000042 5.558333397)
(-4.225031443e-17 -0.2300000042 5.558333397)
(0 0.2300000042 5.596666813)
(-4.225031443e-17 -0.2300000042 5.596666813)
(0 0.2300000042 5.635000229)
(-4.225031443e-17 -0.2300000042 5.635000229)
(0 0.2300000042 5.673333168)
(-4.225031443e-17 -0.2300000042 5.673333168)
(0 0.2300000042 5.711666584)
(-4.225031443e-17 -0.2300000042 5.711666584)
(0 0.2300000042 5.75)
(-4.225031443e-17 -0.2300000042 5.75)
(0 0.2300000042 5.788333416)
(-4.225031443e-17 -0.2300000042 5.788333416)
(0 0.2300000042 5.826666832)
(-4.225031443e-17 -0.2300000042 5.826666832)
(0 0.2300000042 5.864999771)
(-4.225031443e-17 -0.2300000042 5.864999771)
(0 0.2300000042 5.903333187)
(-4.225031443e-17 -0.2300000042 5.903333187)
(0 0.2300000042 5.941666603)
(-4.225031443e-17 -0.2300000042 5.941666603)
(0 0.2300000042 5.980000019)
(-4.225031443e-17 -0.2300000042 5.980000019)
(0 0.2300000042 6.018333435)
(-4.225031443e-17 -0.2300000042 6.018333435)
(0 0.2300000042 6.056666851)
(-4.225031443e-17 -0.2300000042 6.056666851)
(0 0.2300000042 6.09499979)
(-4.225031443e-17 -0.2300000042 6.09499979)
(0 0.2300000042 6.133333206)
(-4.225031443e-17 -0.2300000042 6.133333206)
(0 0.2300000042 6.171666622)
(-4.225031443e-17 -0.2300000042 6.171666622)
(0 0.2300000042 6.210000038)
(-4.225031443e-17 -0.2300000042 6.210000038)
(0 0.2300000042 6.248333454)
(-4.225031443e-17 -0.2300000042 6.248333454)
(0 0.2300000042 6.28666687)
(-4.225031443e-17 -0.2300000042 6.28666687)
(0 0.2300000042 6.324999809)
(-4.225031443e-17 -0.2300000042 6.324999809)
(0 0.2300000042 6.363333225)
(-4.225031443e-17 -0.2300000042 6.363333225)
(0 0.2300000042 6.401666641)
(-4.225031443e-17 -0.2300000042 6.401666641)
(0 0.2300000042 6.440000057)
(-4.225031443e-17 -0.2300000042 6.440000057)
(0 0.2300000042 6.478333473)
(-4.225031443e-17 -0.2300000042 6.478333473)
(0 0.2300000042 6.516666889)
(-4.225031443e-17 -0.2300000042 6.516666889)
(0 0.2300000042 6.554999828)
(-4.225031443e-17 -0.2300000042 6.554999828)
(0 0.2300000042 6.593333244)
(-4.225031443e-17 -0.2300000042 6.593333244)
(0 0.2300000042 6.63166666)
(-4.225031443e-17 -0.2300000042 6.63166666)
(0 0.2300000042 6.670000076)
(-4.225031443e-17 -0.2300000042 6.670000076)
(0 0.2300000042 6.708333492)
(-4.225031443e-17 -0.2300000042 6.708333492)
(0 0.2300000042 6.746666431)
(-4.225031443e-17 -0.2300000042 6.746666431)
(0 0.2300000042 6.784999847)
(-4.225031443e-17 -0.2300000042 6.784999847)
(0 0.2300000042 6.823333263)
(-4.225031443e-17 -0.2300000042 6.823333263)
(0 0.2300000042 6.861666679)
(-4.225031443e-17 -0.2300000042 6.861666679)
(0 0.2300000042 6.900000095)
(-4.225031443e-17 -0.2300000042 6.900000095)
(0.03786488995 0.2268617451 2.243331194)
(-1.251987074e-17 0.2300000042 2.231844902)
(0 0.2300000042 2.368155003)
(0 0.2212790251 2.279499292)
(0 0.2551649213 2.368155003)
(-1.251987074e-17 0.2551649213 2.231844902)
(0 0.2803298533 2.368155003)
(-1.251987074e-17 0.2803298533 2.231844902)
(0 0.3054947555 2.368155003)
(-1.251987074e-17 0.3054947555 2.231844902)
(0 0.3306596875 2.368155003)
(-1.251987074e-17 0.3306596875 2.231844902)
(0 0.3558246195 2.368155003)
(-1.251987074e-17 0.3558246195 2.231844902)
(0 0.3809895515 2.368155003)
(-1.251987074e-17 0.3809895515 2.231844902)
(0 0.4061544538 2.368155003)
(-1.251987074e-17 0.4061544538 2.231844902)
(0 0.4313193858 2.368155003)
(-1.251987074e-17 0.4313193858 2.231844902)
(0 0.4564843178 2.368155003)
(-1.251987074e-17 0.4564843178 2.231844902)
(0 0.48164922 2.368155003)
(-1.251987074e-17 0.48164922 2.231844902)
(0 0.5068141818 2.368155003)
(-1.251987074e-17 0.5068141818 2.231844902)
(0 0.531979084 2.368155003)
(-1.251987074e-17 0.531979084 2.231844902)
(0 0.5571439862 2.368155003)
(-1.251987074e-17 0.5571439862 2.231844902)
(0 0.582308948 2.368155003)
(-1.251987074e-17 0.582308948 2.231844902)
(0 0.6074738503 2.368155003)
(-1.251987074e-17 0.6074738503 2.231844902)
(0 0.6326387525 2.368155003)
(-1.251987074e-17 0.6326387525 2.231844902)
(0 0.6578037143 2.368155003)
(-1.251987074e-17 0.6578037143 2.231844902)
(0 0.6829686165 2.368155003)
(-1.251987074e-17 0.6829686165 2.231844902)
(0 0.7081335187 2.368155003)
(-1.251987074e-17 0.7081335187 2.231844902)
(0 0.7332984805 2.368155003)
(-1.251987074e-17 0.7332984805 2.231844902)
(0 0.7584633827 2.368155003)
(-1.251987074e-17 0.7584633827 2.231844902)
(0 0.7836282849 2.368155003)
(-1.251987074e-17 0.7836282849 2.231844902)
(0 0.8087932467 2.368155003)
(-1.251987074e-17 0.8087932467 2.231844902)
(0 0.833958149 2.368155003)
(-1.251987074e-17 0.833958149 2.231844902)
(0 0.8591230512 2.368155003)
(-1.251987074e-17 0.8591230512 2.231844902)
(0 0.884288013 2.368155003)
(-1.251987074e-17 0.884288013 2.231844902)
(0 0.9094529152 2.368155003)
(-1.251987074e-17 0.9094529152 2.231844902)
(0 0.9346178174 2.368155003)
(-1.251987074e-17 0.9346178174 2.231844902)
(0 0.9597827792 2.368155003)
(-1.251987074e-17 0.9597827792 2.231844902)
(0 0.9849476814 2.368155003)
(-1.251987074e-17 0.9849476814 2.231844902)
(0 1.010112643 2.368155003)
(-1.251987074e-17 1.010112643 2.231844902)
(0 1.035277486 2.368155003)
(-1.251987074e-17 1.035277486 2.231844902)
(0 1.060442448 2.368155003)
(-1.251987074e-17 1.060442448 2.231844902)
(0 1.085607409 2.368155003)
(-1.251987074e-17 1.085607409 2.231844902)
(0 1.110772252 2.368155003)
(-1.251987074e-17 1.110772252 2.231844902)
(0 1.135937214 2.368155003)
(-1.251987074e-17 1.135937214 2.231844902)
(0 1.161102176 2.368155003)
(-1.251987074e-17 1.161102176 2.231844902)
(0 1.186267018 2.368155003)
(-1.251987074e-17 1.186267018 2.231844902)
(0 1.21143198 2.368155003)
(-1.251987074e-17 1.21143198 2.231844902)
(0 1.236596942 2.368155003)
(-1.251987074e-17 1.236596942 2.231844902)
(0 1.261761904 2.368155003)
(-1.251987074e-17 1.261761904 2.231844902)
(0 1.286926746 2.368155003)
(-1.251987074e-17 1.286926746 2.231844902)
(0 1.312091708 2.368155003)
(-1.251987074e-17 1.312091708 2.231844902)
(0 1.33725667 2.368155003)
(-1.251987074e-17 1.33725667 2.231844902)
(0 1.362421513 2.368155003)
(-1.251987074e-17 1.362421513 2.231844902)
(0 1.387586474 2.368155003)
(-1.251987074e-17 1.387586474 2.231844902)
(0 1.412751436 2.368155003)
(-1.251987074e-17 1.412751436 2.231844902)
(0 1.437916279 2.368155003)
(-1.251987074e-17 1.437916279 2.231844902)
(0 1.463081241 2.368155003)
(-1.251987074e-17 1.463081241 2.231844902)
(0 1.488246202 2.368155003)
(-1.251987074e-17 1.488246202 2.231844902)
(0 1.513411045 2.368155003)
(-1.251987074e-17 1.513411045 2.231844902)
(0 1.538576007 2.368155003)
(-1.251987074e-17 1.538576007 2.231844902)
(0 1.563740969 2.368155003)
(-1.251987074e-17 1.563740969 2.231844902)
(0 1.588905811 2.368155003)
(-1.251987074e-17 1.588905811 2.231844902)
(0 1.614070773 2.368155003)
(-1.251987074e-17 1.614070773 2.231844902)
(0 1.639235735 2.368155003)
(-1.251987074e-17 1.639235735 2.231844902)
(0 1.664400578 2.368155003)
(-1.251987074e-17 1.664400578 2.231844902)
(0 1.689565539 2.368155003)
(-1.251987074e-17 1.689565539 2.231844902)
(0 1.714730501 2.368155003)
(-1.251987074e-17 1.714730501 2.231844902)
(0 1.739895344 2.368155003)
(-1.251987074e-17 1.739895344 2.231844902)
(0 1.765060306 2.368155003)
(-1.251987074e-17 1.765060306 2.231844902)
(0 1.790225267 2.368155003)
(-1.251987074e-17 1.790225267 2.231844902)
(0 1.81539011 2.368155003)
(-1.251987074e-17 1.81539011 2.231844902)
(0 1.840555072 2.368155003)
(-1.251987074e-17 1.840555072 2.231844902)
(0 1.865720034 2.368155003)
(-1.251987074e-17 1.865720034 2.231844902)
(0 0.2289628983 2.36837244)
(0.2300000042 -5.633375257e-17 0)
(0.2295075506 0.01504271943 0)
(0.2280323207 0.03002102487 0)
(0.2255806178 0.04487077519 0)
(0.2221629471 0.05952838063 0)
(0.2177939266 0.07393107563 0)
(0.2124922872 0.08801718801 0)
(0.2062807232 0.1017263979 0)
(0.1991858482 0.1150000021 0)
(0.1912380159 0.1277811527 0)
(0.1824712753 0.1400151253 0)
(0.1729231626 0.1516495347 0)
(0.1626345664 0.1626345664 0)
(0.1516495347 0.1729231626 0)
(0.1400151253 0.1824712753 0)
(0.1277811527 0.1912380159 0)
(0.1150000021 0.1991858482 0)
(0.1017263979 0.2062807232 0)
(0.08801718801 0.2124922872 0)
(0.07393107563 0.2177939266 0)
(0.05952838063 0.2221629471 0)
(0.04487077519 0.2255806178 0)
(0.03002102487 0.2280323207 0)
(0.01504271943 0.2295075506 0)
(0.01504271943 -0.2295075506 0)
(0.03002102487 -0.2280323207 0)
(0.04487077519 -0.2255806178 0)
(0.05952838063 -0.2221629471 0)
(0.07393107563 -0.2177939266 0)
(0.08801718801 -0.2124922872 0)
(0.1017263979 -0.2062807232 0)
(0.1150000021 -0.1991858482 0)
(0.1277811527 -0.1912380159 0)
(0.1400151253 -0.1824712753 0)
(0.1516495347 -0.1729231626 0)
(0.1626345664 -0.1626345664 0)
(0.1729231626 -0.1516495347 0)
(0.1824712753 -0.1400151253 0)
(0.1912380159 -0.1277811527 0)
(0.1991858482 -0.1150000021 0)
(0.2062807232 -0.1017263979 0)
(0.2124922872 -0.08801718801 0)
(0.2177939266 -0.07393107563 0)
(0.2221629471 -0.05952838063 0)
(0.2255806178 -0.04487077519 0)
(0.2280323207 -0.03002102487 0)
(0.2295075506 -0.01504271943 0)
(0.2295075506 0.01504271943 6.900000095)
(0.2300000042 -5.633375257e-17 6.900000095)
(0.2280323207 0.03002102487 6.900000095)
(0.2255806178 0.04487077519 6.900000095)
(0.2221629471 0.05952838063 6.900000095)
(0.2177939266 0.07393107563 6.900000095)
(0.2124922872 0.08801718801 6.900000095)
(0.2062807232 0.1017263979 6.900000095)
(0.1991858482 0.1150000021 6.900000095)
(0.1912380159 0.1277811527 6.900000095)
(0.1824712753 0.1400151253 6.900000095)
(0.1729231626 0.1516495347 6.900000095)
(0.1626345664 0.1626345664 6.900000095)
(0.1516495347 0.1729231626 6.900000095)
(0.1400151253 0.1824712753 6.900000095)
(0.1277811527 0.1912380159 6.900000095)
(0.1150000021 0.1991858482 6.900000095)
(0.1017263979 0.2062807232 6.900000095)
(0.08801718801 0.2124922872 6.900000095)
(0.07393107563 0.2177939266 6.900000095)
(0.05952838063 0.2221629471 6.900000095)
(0.04487077519 0.2255806178 6.900000095)
(0.03002102487 0.2280323207 6.900000095)
(0.01504271943 0.2295075506 6.900000095)
(0.01504271943 -0.2295075506 6.900000095)
(0.03002102487 -0.2280323207 6.900000095)
(0.04487077519 -0.2255806178 6.900000095)
(0.05952838063 -0.2221629471 6.900000095)
(0.07393107563 -0.2177939266 6.900000095)
(0.08801718801 -0.2124922872 6.900000095)
(0.1017263979 -0.2062807232 6.900000095)
(0.1150000021 -0.1991858482 6.900000095)
(0.1277811527 -0.1912380159 6.900000095)
(0.1400151253 -0.1824712753 6.900000095)
(0.1516495347 -0.1729231626 6.900000095)
(0.1626345664 -0.1626345664 6.900000095)
(0.1729231626 -0.1516495347 6.900000095)
(0.1824712753 -0.1400151253 6.900000095)
(0.1912380159 -0.1277811527 6.900000095)
(0.1991858482 -0.1150000021 6.900000095)
(0.2062807232 -0.1017263979 6.900000095)
(0.2124922872 -0.08801718801 6.900000095)
(0.2177939266 -0.07393107563 6.900000095)
(0.2221629471 -0.05952838063 6.900000095)
(0.2255806178 -0.04487077519 6.900000095)
(0.2280323207 -0.03002102487 6.900000095)
(0.2295075506 -0.01504271943 6.900000095)
(0 0.227934286 2.368303299)
(0 0.2269179076 2.367980719)
(0 0.2259174734 2.367433548)
(0 0.2249365598 2.366687059)
(0 0.2239787579 2.365762711)
(0 0.2230475992 2.36467886)
(0 0.2221465558 2.363451242)
(0 0.2212790251 2.36209321)
(0 0.2204483896 2.360616922)
(0 0.2196579129 2.359031916)
(0 0.2189107984 2.357346058)
(-6.938893904e-18 0.2182101756 2.355566502)
(0 0.2175590396 2.353698492)
(0 0.2169602513 2.351747036)
(0 0.2164164931 2.349715471)
(0 0.2159302682 2.347606421)
(0 0.2155039161 2.345421791)
(0 0.2151394635 2.343163252)
(0 0.2148387283 2.340831041)
(0 0.2146032155 2.338425159)
(0 0.2144341171 2.335945368)
(0 0.2143323123 2.333390236)
(0 0.2142983079 2.330758095)
(0 0.2143323123 2.328047037)
(0 0.2144341171 2.325254679)
(0 0.2146032155 2.322377682)
(0 0.2148387283 2.31941247)
(0 0.2151394635 2.316355467)
(0 0.2155039161 2.313201904)
(0 0.2159302682 2.309947014)
(0 0.2164164931 2.306585312)
(0 0.2169602513 2.303110838)
(0 0.2175590396 2.299517393)
(-6.938893904e-18 0.2182101756 2.295797825)
(0 0.2189107984 2.291944504)
(0 0.2196579129 2.287949324)
(0 0.2204483896 2.28380394)
(0 0.2212790251 2.289897203)
(0 0.2212790251 2.300295353)
(0 0.2225394696 2.306499004)
(0 0.2237905115 2.314458132)
(0 0.2250349373 2.324976683)
(0 0.2262754291 2.339441061)
(0 0.2275146544 2.360464573)
(0 0.2287552953 2.393625498)
(0.0680090785 1.865720034 2.304457664)
(0.06815499812 1.865720034 2.299999952)
(0.06757192314 1.865720034 2.308896065)
(0.06684542447 1.865720034 2.313296318)
(0.0658326745 1.865720034 2.317639828)
(0.06453802437 1.865720034 2.321907759)
(0.06296700984 1.865720034 2.326081753)
(0.06112636253 1.865720034 2.330144167)
(0.05902396142 1.865720034 2.334077597)
(0.05666881055 1.865720034 2.337864876)
(0.05407099798 1.865720034 2.34149003)
(0.05124164373 1.865720034 2.344937801)
(0.04819286242 1.865720034 2.34819293)
(0.04493771493 1.865720034 2.351241589)
(0.04149013385 1.865720034 2.354070902)
(0.03786488995 1.865720034 2.356668711)
(0.03407749906 1.865720034 2.359024048)
(0.03014418483 1.865720034 2.361126423)
(0.02608178928 1.865720034 2.362967014)
(0.02190770768 1.865720034 2.364537954)
(0.01763981208 1.865720034 2.365832567)
(0.01329638064 1.865720034 2.366845369)
(0.008896012791 1.865720034 2.367571831)
(0.004457550123 1.865720034 2.36800909)
(0.004457550123 1.865720034 2.231990814)
(0.008896012791 1.865720034 2.232428074)
(0.01329638064 1.865720034 2.233154535)
(0.01763981208 1.865720034 2.234167337)
(0.02190770768 1.865720034 2.23546195)
(0.02608178928 1.865720034 2.23703289)
(0.03014418483 1.865720034 2.23887372)
(0.03407749906 1.865720034 2.240976095)
(0.03786488995 1.865720034 2.243331194)
(0.04149013385 1.865720034 2.245929003)
(0.04493771493 1.865720034 2.248758316)
(0.04819286242 1.865720034 2.251807213)
(0.05124164373 1.865720034 2.255062342)
(0.05407099798 1.865720034 2.258509874)
(0.05666881055 1.865720034 2.262135029)
(0.05902396142 1.865720034 2.265922546)
(0.06112636253 1.865720034 2.269855738)
(0.06296700984 1.865720034 2.273918152)
(0.06453802437 1.865720034 2.278092384)
(0.0658326745 1.865720034 2.282360077)
(0.06684542447 1.865720034 2.286703587)
(0.06757192314 1.865720034 2.291104078)
(0.0680090785 1.865720034 2.295542479)
(0.008896012791 0.2298278958 2.367571831)
(0.004457550123 0.2299568057 2.36800909)
(0.01329638064 0.2296153456 2.366845369)
(0.01763981208 0.2293225676 2.365832567)
(0.02190770768 0.2289542556 2.364537954)
(0.02608178928 0.228516385 2.362967014)
(0.03014418483 0.2280160636 2.361126423)
(0.03407749906 0.2274614722 2.359024048)
(0.03786488995 0.2268617451 2.356668711)
(0.04149013385 0.2262268066 2.354070902)
(0.04493771493 0.2255672961 2.351241589)
(0.04819286242 0.2248943001 2.34819293)
(0.05124164373 0.2242192924 2.344937801)
(0.05407099798 0.2235538512 2.34149003)
(0.05666881055 0.2229094952 2.337864876)
(0.05902396142 0.2222974896 2.334077597)
(0.06112636253 0.2217285931 2.330144167)
(0.06296700984 0.2212129235 2.326081753)
(0.06453802437 0.2207596898 2.321907759)
(0.0658326745 0.2203770876 2.317639828)
(0.06684542447 0.2200720161 2.313296318)
(0.06757192314 0.2198500335 2.308896065)
(0.0680090785 0.2197151929 2.304457664)
(0.06815499812 0.2196699679 2.299999952)
(0.0680090785 0.2197151929 2.295542479)
(0.06757192314 0.2198500335 2.291104078)
(0.06684542447 0.2200720161 2.286703587)
(0.0658326745 0.2203770876 2.282360077)
(0.06453802437 0.2207596898 2.278092384)
(0.06296700984 0.2212129235 2.273918152)
(0.06112636253 0.2217285931 2.269855738)
(0.05902396142 0.2222974896 2.265922546)
(0.05666881055 0.2229094952 2.262135029)
(0.05407099798 0.2235538512 2.258509874)
(0.05124164373 0.2242192924 2.255062342)
(0.04819286242 0.2248943001 2.251807213)
(0.04493771493 0.2255672961 2.248758316)
(0.04149013385 0.2262268066 2.245929003)
(0.03407749906 0.2274614722 2.240976095)
(0.03014418483 0.2280160636 2.23887372)
(0.02608178928 0.228516385 2.23703289)
(0.02190770768 0.2289542556 2.23546195)
(0.01763981208 0.2293225676 2.234167337)
(0.01329638064 0.2296153456 2.233154535)
(0.008896012791 0.2298278958 2.232428074)
(0.004457550123 0.2299568057 2.231990814)
)


// edges:

1950
(
(676 677)
(678 676)
(679 678)
(680 679)
(681 680)
(682 681)
(683 682)
(684 683)
(685 684)
(686 685)
(687 686)
(688 687)
(689 688)
(690 689)
(691 690)
(692 691)
(693 692)
(694 693)
(695 694)
(696 695)
(697 696)
(698 697)
(699 698)
(700 699)
(701 700)
(702 701)
(703 702)
(704 703)
(705 704)
(706 705)
(707 706)
(708 707)
(709 708)
(710 709)
(711 710)
(712 711)
(713 712)
(358 355)
(355 713)
(714 355)
(715 714)
(716 715)
(717 716)
(718 717)
(719 718)
(720 719)
(721 720)
(356 721)
(677 357)
(490 491)
(491 492)
(492 493)
(493 494)
(494 495)
(495 496)
(496 497)
(497 498)
(498 499)
(499 500)
(500 501)
(501 502)
(502 503)
(503 504)
(504 505)
(505 506)
(506 507)
(507 508)
(508 509)
(509 510)
(510 511)
(511 512)
(512 513)
(513 1)
(3 3)
(3 514)
(514 515)
(515 516)
(516 517)
(517 518)
(518 519)
(519 520)
(520 521)
(521 522)
(522 523)
(523 524)
(524 525)
(525 526)
(526 527)
(527 528)
(528 529)
(529 530)
(530 531)
(531 532)
(532 533)
(533 534)
(534 535)
(535 536)
(536 490)
(537 538)
(539 537)
(540 539)
(541 540)
(542 541)
(543 542)
(544 543)
(545 544)
(546 545)
(547 546)
(548 547)
(549 548)
(550 549)
(551 550)
(552 551)
(553 552)
(554 553)
(555 554)
(556 555)
(557 556)
(558 557)
(559 558)
(560 559)
(353 560)
(353 353)
(561 354)
(562 561)
(563 562)
(564 563)
(565 564)
(566 565)
(567 566)
(568 567)
(569 568)
(570 569)
(571 570)
(572 571)
(573 572)
(574 573)
(575 574)
(576 575)
(577 576)
(578 577)
(579 578)
(580 579)
(581 580)
(582 581)
(583 582)
(538 583)
(489 584)
(584 585)
(585 586)
(586 587)
(587 588)
(588 589)
(589 590)
(590 591)
(591 592)
(592 593)
(593 594)
(594 595)
(595 596)
(596 597)
(597 598)
(598 599)
(599 600)
(600 601)
(601 602)
(602 603)
(603 604)
(604 605)
(605 606)
(606 607)
(607 608)
(608 609)
(609 610)
(610 611)
(611 612)
(612 613)
(613 614)
(614 615)
(615 616)
(616 617)
(617 618)
(618 619)
(619 620)
(620 358)
(358 621)
(621 622)
(622 623)
(623 624)
(624 625)
(625 626)
(626 627)
(627 628)
(628 123)
(629 630)
(631 629)
(632 631)
(633 632)
(634 633)
(635 634)
(636 635)
(637 636)
(638 637)
(639 638)
(640 639)
(641 640)
(642 641)
(643 642)
(644 643)
(645 644)
(646 645)
(647 646)
(648 647)
(649 648)
(650 649)
(651 650)
(652 651)
(487 652)
(487 487)
(653 488)
(654 653)
(655 654)
(656 655)
(657 656)
(658 657)
(659 658)
(660 659)
(661 660)
(662 661)
(663 662)
(664 663)
(665 664)
(666 665)
(667 666)
(668 667)
(669 668)
(670 669)
(671 670)
(672 671)
(673 672)
(674 673)
(675 674)
(630 675)
(1 0)
(0 0)
(1 1)
(2 2)
(2 2)
(2 2)
(3 2)
(2 3)
(0 4)
(4 4)
(5 5)
(5 5)
(5 5)
(2 5)
(5 2)
(4 6)
(6 6)
(7 7)
(7 7)
(7 7)
(5 7)
(7 5)
(6 8)
(8 8)
(9 9)
(9 9)
(9 9)
(7 9)
(9 7)
(8 10)
(10 10)
(11 11)