/*--------------------------------*- C++ -*----------------------------------*\
| =========                 |                                                 |
| \\      /  F ield         | OpenFOAM: The Open Source CFD Toolbox           |
|  \\    /   O peration     | Version:  2406                                  |
|   \\  /    A nd           | Website:  www.openfoam.com                      |
|    \\/     M anipulation  |                                                 |
\*---------------------------------------------------------------------------*/
FoamFile
{
    version     2.0;
    format      ascii;
    arch        "LSB;label=32;scalar=64";
    class       featureEdgeMesh;
    location    "constant/triSurface";
    object      branch_inlet.eMesh;
}
// * * * * * * * * * * * * * * * * * * * * * * * * * * * * * * * * * * * * * //


// points:

50
(
(0 1.620200038 2.299999952)
(0 1.620200038 2.357924938)
(-1.064064957e-17 1.620200038 2.242074966)
(0.05780097842 1.620200038 2.303788424)
(0.05792500079 1.620200038 2.299999952)
(0.05742944404 1.620200038 2.307560682)
(0.05681198835 1.620200038 2.311300516)
(0.05595125258 1.620200038 2.314992189)
(0.05485092849 1.620200038 2.31861949)
(0.05351572111 1.620200038 2.32216692)
(0.05195135251 1.620200038 2.325619459)
(0.05016452074 1.620200038 2.328962564)
(0.04816287756 1.620200038 2.332181454)
(0.04595499113 1.620200038 2.335262537)
(0.04355031997 1.620200038 2.338192701)
(0.04095916077 1.620200038 2.340959072)
(0.03819260746 1.620200038 2.343550205)
(0.03526250646 1.620200038 2.345954895)
(0.03218140453 1.620200038 2.348162889)
(0.02896250039 1.620200038 2.350164413)
(0.02561957203 1.620200038 2.351951361)
(0.02216693759 1.620200038 2.353515625)
(0.01861938089 1.620200038 2.354851007)
(0.01499209274 1.620200038 2.355951309)
(0.01130060665 1.620200038 2.356812)
(0.007560729515 1.620200038 2.357429504)
(0.003788476344 1.620200038 2.357800961)
(0.003788476344 1.620200038 2.242198944)
(0.007560729515 1.620200038 2.242570639)
(0.01130060665 1.620200038 2.243187904)
(0.01499209274 1.620200038 2.244048834)
(0.01861938089 1.620200038 2.245149136)
(0.02216693759 1.620200038 2.24648428)
(0.02561957203 1.620200038 2.248048544)
(0.02896250039 1.620200038 2.249835491)
(0.03218140453 1.620200038 2.251837015)
(0.03526250646 1.620200038 2.25404501)
(0.03819260746 1.620200038 2.256449699)
(0.04095916077 1.620200038 2.259040833)
(0.04355031997 1.620200038 2.261807442)
(0.04595499113 1.620200038 2.264737606)
(0.04816287756 1.620200038 2.267818689)
(0.05016452074 1.620200038 2.271037579)
(0.05195135251 1.620200038 2.274380445)
(0.05351572111 1.620200038 2.277832985)
(0.05485092849 1.620200038 2.281380653)
(0.05595125258 1.620200038 2.285007954)
(0.05681198835 1.620200038 2.288699389)
(0.05742944404 1.620200038 2.292439222)
(0.05780097842 1.620200038 2.296211481)
)


// edges:

54
(
(3 4)
(5 3)
(6 5)
(7 6)
(8 7)
(9 8)
(10 9)
(11 10)
(12 11)
(13 12)
(14 13)
(15 14)
(16 15)
(17 16)
(18 17)
(19 18)
(20 19)
(21 20)
(22 21)
(23 22)
(24 23)
(25 24)
(26 25)
(1 26)
(1 1)
(2 2)
(27 2)
(28 27)
(29 28)
(30 29)
(31 30)
(32 31)
(33 32)
(34 33)
(35 34)
(36 35)
(37 36)
(38 37)
(39 38)
(40 39)
(41 40)
(42 41)
(43 42)
(44 43)
(45 44)
(46 45)
(47 46)
(48 47)
(49 48)
(4 49)
(0 1)
(0 0)
(0 2)
(2 0)
)

// * * * * * * * * * * * * * * * * * * * * * * * * * * * * * * * * * * * * * //


// ************************************************************************* //
