/*--------------------------------*- C++ -*----------------------------------*\
| =========                 |                                                 |
| \\      /  F ield         | OpenFOAM: The Open Source CFD Toolbox           |
|  \\    /   O peration     | Version:  2406                                  |
|   \\  /    A nd           | Website:  www.openfoam.com                      |
|    \\/     M anipulation  |                                                 |
\*---------------------------------------------------------------------------*/
FoamFile
{
    version     2.0;
    format      ascii;
    arch        "LSB;label=32;scalar=64";
    class       featureEdgeMesh;
    location    "constant/triSurface";
    object      wall.eMesh;
}
// * * * * * * * * * * * * * * * * * * * * * * * * * * * * * * * * * * * * * //


// points:

704
(
(0 0.2300000042 0.03833333403)
(0 0.2300000042 3.588879921e-17)
(-4.225031443e-17 -0.2300000042 0.03833333403)
(-4.225031443e-17 -0.2300000042 0)
(0 0.2300000042 0.07666666806)
(-4.225031443e-17 -0.2300000042 0.07666666806)
(0 0.2300000042 0.1150000021)
(-4.225031443e-17 -0.2300000042 0.1150000021)
(0 0.2300000042 0.1533333361)
(-4.225031443e-17 -0.2300000042 0.1533333361)
(0 0.2300000042 0.1916666627)
(-4.225031443e-17 -0.2300000042 0.1916666627)
(0 0.2300000042 0.2300000042)
(-4.225031443e-17 -0.2300000042 0.2300000042)
(0 0.2300000042 0.2683333457)
(-4.225031443e-17 -0.2300000042 0.2683333457)
(0 0.2300000042 0.3066666722)
(-4.225031443e-17 -0.2300000042 0.3066666722)
(0 0.2300000042 0.3449999988)
(-4.225031443e-17 -0.2300000042 0.3449999988)
(0 0.2300000042 0.3833333254)
(-4.225031443e-17 -0.2300000042 0.3833333254)
(0 0.2300000042 0.421666652)
(-4.225031443e-17 -0.2300000042 0.421666652)
(0 0.2300000042 0.4600000083)
(-4.225031443e-17 -0.2300000042 0.4600000083)
(0 0.2300000042 0.4983333349)
(-4.225031443e-17 -0.2300000042 0.4983333349)
(0 0.2300000042 0.5366666913)
(-4.225031443e-17 -0.2300000042 0.5366666913)
(0 0.2300000042 0.5749999881)
(-4.225031443e-17 -0.2300000042 0.5749999881)
(0 0.2300000042 0.6133333445)
(-4.225031443e-17 -0.2300000042 0.6133333445)
(0 0.2300000042 0.6516666412)
(-4.225031443e-17 -0.2300000042 0.6516666412)
(0 0.2300000042 0.6899999976)
(-4.225031443e-17 -0.2300000042 0.6899999976)
(0 0.2300000042 0.728333354)
(-4.225031443e-17 -0.2300000042 0.728333354)
(0 0.2300000042 0.7666666508)
(-4.225031443e-17 -0.2300000042 0.7666666508)
(0 0.2300000042 0.8050000072)
(-4.225031443e-17 -0.2300000042 0.8050000072)
(0 0.2300000042 0.8433333039)
(-4.225031443e-17 -0.2300000042 0.8433333039)
(0 0.2300000042 0.8816666603)
(-4.225031443e-17 -0.2300000042 0.8816666603)
(0 0.2300000042 0.9200000167)
(-4.225031443e-17 -0.2300000042 0.9200000167)
(0 0.2300000042 0.9583333135)
(-4.225031443e-17 -0.2300000042 0.9583333135)
(0 0.2300000042 0.9966666698)
(-4.225031443e-17 -0.2300000042 0.9966666698)
(0 0.2300000042 1.034999967)
(-4.225031443e-17 -0.2300000042 1.034999967)
(0 0.2300000042 1.073333383)
(-4.225031443e-17 -0.2300000042 1.073333383)
(0 0.2300000042 1.111666679)
(-4.225031443e-17 -0.2300000042 1.111666679)
(0 0.2300000042 1.149999976)
(-4.225031443e-17 -0.2300000042 1.149999976)
(0 0.2300000042 1.188333392)
(-4.225031443e-17 -0.2300000042 1.188333392)
(0 0.2300000042 1.226666689)
(-4.225031443e-17 -0.2300000042 1.226666689)
(0 0.2300000042 1.264999986)
(-4.225031443e-17 -0.2300000042 1.264999986)
(0 0.2300000042 1.303333282)
(-4.225031443e-17 -0.2300000042 1.303333282)
(0 0.2300000042 1.341666698)
(-4.225031443e-17 -0.2300000042 1.341666698)
(0 0.2300000042 1.379999995)
(-4.225031443e-17 -0.2300000042 1.379999995)
(0 0.2300000042 1.418333292)
(-4.225031443e-17 -0.2300000042 1.418333292)
(0 0.2300000042 1.456666708)
(-4.225031443e-17 -0.2300000042 1.456666708)
(0 0.2300000042 1.495000005)
(-4.225031443e-17 -0.2300000042 1.495000005)
(0 0.2300000042 1.533333302)
(-4.225031443e-17 -0.2300000042 1.533333302)
(0 0.2300000042 1.571666718)
(-4.225031443e-17 -0.2300000042 1.571666718)
(0 0.2300000042 1.610000014)
(-4.225031443e-17 -0.2300000042 1.610000014)
(0 0.2300000042 1.648333311)
(-4.225031443e-17 -0.2300000042 1.648333311)
(0 0.2300000042 1.686666608)
(-4.225031443e-17 -0.2300000042 1.686666608)
(0 0.2300000042 1.725000024)
(-4.225031443e-17 -0.2300000042 1.725000024)
(0 0.2300000042 1.763333321)
(-4.225031443e-17 -0.2300000042 1.763333321)
(0 0.2300000042 1.801666617)
(-4.225031443e-17 -0.2300000042 1.801666617)
(0 0.2300000042 1.840000033)
(-4.225031443e-17 -0.2300000042 1.840000033)
(0 0.2300000042 1.87833333)
(-4.225031443e-17 -0.2300000042 1.87833333)
(0 0.2300000042 1.916666627)
(-4.225031443e-17 -0.2300000042 1.916666627)
(0 0.2300000042 1.955000043)
(-4.225031443e-17 -0.2300000042 1.955000043)
(0 0.2300000042 1.99333334)
(-4.225031443e-17 -0.2300000042 1.99333334)
(0 0.2300000042 2.031666756)
(-4.225031443e-17 -0.2300000042 2.031666756)
(0 0.2300000042 2.069999933)
(-4.225031443e-17 -0.2300000042 2.069999933)
(0 0.2300000042 2.108333349)
(-4.225031443e-17 -0.2300000042 2.108333349)
(0 0.2300000042 2.146666765)
(-4.225031443e-17 -0.2300000042 2.146666765)
(-4.225031443e-17 -0.2300000042 2.184999943)
(-4.225031443e-17 -0.2300000042 2.223333359)
(-4.225031443e-17 -0.2300000042 2.261666775)
(-4.225031443e-17 -0.2300000042 2.299999952)
(-4.225031443e-17 -0.2300000042 2.338333368)
(-4.225031443e-17 -0.2300000042 2.376666784)
(-4.225031443e-17 -0.2300000042 2.414999962)
(-4.225031443e-17 -0.2300000042 2.453333378)
(0 0.2300000042 2.491666555)
(1.408343814e-17 0.2300000042 2.453333378)
(-4.225031443e-17 -0.2300000042 2.491666555)
(0 0.2300000042 2.529999971)
(-4.225031443e-17 -0.2300000042 2.529999971)
(0 0.2300000042 2.568333387)
(-4.225031443e-17 -0.2300000042 2.568333387)
(0 0.2300000042 2.606666565)
(-4.225031443e-17 -0.2300000042 2.606666565)
(0 0.2300000042 2.644999981)
(-4.225031443e-17 -0.2300000042 2.644999981)
(0 0.2300000042 2.683333397)
(-4.225031443e-17 -0.2300000042 2.683333397)
(0 0.2300000042 2.721666574)
(-4.225031443e-17 -0.2300000042 2.721666574)
(0 0.2300000042 2.75999999)
(-4.225031443e-17 -0.2300000042 2.75999999)
(0 0.2300000042 2.798333406)
(-4.225031443e-17 -0.2300000042 2.798333406)
(0 0.2300000042 2.836666584)
(-4.225031443e-17 -0.2300000042 2.836666584)
(0 0.2300000042 2.875)
(-4.225031443e-17 -0.2300000042 2.875)
(0 0.2300000042 2.913333416)
(-4.225031443e-17 -0.2300000042 2.913333416)
(0 0.2300000042 2.951666594)
(-4.225031443e-17 -0.2300000042 2.951666594)
(0 0.2300000042 2.99000001)
(-4.225031443e-17 -0.2300000042 2.99000001)
(0 0.2300000042 3.028333426)
(-4.225031443e-17 -0.2300000042 3.028333426)
(0 0.2300000042 3.066666603)
(-4.225031443e-17 -0.2300000042 3.066666603)
(0 0.2300000042 3.105000019)
(-4.225031443e-17 -0.2300000042 3.105000019)
(0 0.2300000042 3.143333435)
(-4.225031443e-17 -0.2300000042 3.143333435)
(0 0.2300000042 3.181666613)
(-4.225031443e-17 -0.2300000042 3.181666613)
(0 0.2300000042 3.220000029)
(-4.225031443e-17 -0.2300000042 3.220000029)
(0 0.2300000042 3.258333445)
(-4.225031443e-17 -0.2300000042 3.258333445)
(0 0.2300000042 3.296666622)
(-4.225031443e-17 -0.2300000042 3.296666622)
(0 0.2300000042 3.335000038)
(-4.225031443e-17 -0.2300000042 3.335000038)
(0 0.2300000042 3.373333216)
(-4.225031443e-17 -0.2300000042 3.373333216)
(0 0.2300000042 3.411666632)
(-4.225031443e-17 -0.2300000042 3.411666632)
(0 0.2300000042 3.450000048)
(-4.225031443e-17 -0.2300000042 3.450000048)
(0 0.2300000042 3.488333225)
(-4.225031443e-17 -0.2300000042 3.488333225)
(0 0.2300000042 3.526666641)
(-4.225031443e-17 -0.2300000042 3.526666641)
(0 0.2300000042 3.565000057)
(-4.225031443e-17 -0.2300000042 3.565000057)
(0 0.2300000042 3.603333235)
(-4.225031443e-17 -0.2300000042 3.603333235)
(0 0.2300000042 3.641666651)
(-4.225031443e-17 -0.2300000042 3.641666651)
(0 0.2300000042 3.680000067)
(-4.225031443e-17 -0.2300000042 3.680000067)
(0 0.2300000042 3.718333244)
(-4.225031443e-17 -0.2300000042 3.718333244)
(0 0.2300000042 3.75666666)
(-4.225031443e-17 -0.2300000042 3.75666666)
(0 0.2300000042 3.795000076)
(-4.225031443e-17 -0.2300000042 3.795000076)
(0 0.2300000042 3.833333254)
(-4.225031443e-17 -0.2300000042 3.833333254)
(0 0.2300000042 3.87166667)
(-4.225031443e-17 -0.2300000042 3.87166667)
(0 0.2300000042 3.910000086)
(-4.225031443e-17 -0.2300000042 3.910000086)
(0 0.2300000042 3.948333263)
(-4.225031443e-17 -0.2300000042 3.948333263)
(0 0.2300000042 3.986666679)
(-4.225031443e-17 -0.2300000042 3.986666679)
(0 0.2300000042 4.025000095)
(-4.225031443e-17 -0.2300000042 4.025000095)
(0 0.2300000042 4.063333511)
(-4.225031443e-17 -0.2300000042 4.063333511)
(0 0.2300000042 4.101666451)
(-4.225031443e-17 -0.2300000042 4.101666451)
(0 0.2300000042 4.139999866)
(-4.225031443e-17 -0.2300000042 4.139999866)
(0 0.2300000042 4.178333282)
(-4.225031443e-17 -0.2300000042 4.178333282)
(0 0.2300000042 4.216666698)
(-4.225031443e-17 -0.2300000042 4.216666698)
(0 0.2300000042 4.255000114)
(-4.225031443e-17 -0.2300000042 4.255000114)
(0 0.2300000042 4.29333353)
(-4.225031443e-17 -0.2300000042 4.29333353)
(0 0.2300000042 4.33166647)
(-4.225031443e-17 -0.2300000042 4.33166647)
(0 0.2300000042 4.369999886)
(-4.225031443e-17 -0.2300000042 4.369999886)
(0 0.2300000042 4.408333302)
(-4.225031443e-17 -0.2300000042 4.408333302)
(0 0.2300000042 4.446666718)
(-4.225031443e-17 -0.2300000042 4.446666718)
(0 0.2300000042 4.485000134)
(-4.225031443e-17 -0.2300000042 4.485000134)
(0 0.2300000042 4.523333549)
(-4.225031443e-17 -0.2300000042 4.523333549)
(0 0.2300000042 4.561666489)
(-4.225031443e-17 -0.2300000042 4.561666489)
(0 0.2300000042 4.599999905)
(-4.225031443e-17 -0.2300000042 4.599999905)
(0 0.2300000042 4.638333321)
(-4.225031443e-17 -0.2300000042 4.638333321)
(0 0.2300000042 4.676666737)
(-4.225031443e-17 -0.2300000042 4.676666737)
(0 0.2300000042 4.715000153)
(-4.225031443e-17 -0.2300000042 4.715000153)
(0 0.2300000042 4.753333569)
(-4.225031443e-17 -0.2300000042 4.753333569)
(0 0.2300000042 4.791666508)
(-4.225031443e-17 -0.2300000042 4.791666508)
(0 0.2300000042 4.829999924)
(-4.225031443e-17 -0.2300000042 4.829999924)
(0 0.2300000042 4.86833334)
(-4.225031443e-17 -0.2300000042 4.86833334)
(0 0.2300000042 4.906666756)
(-4.225031443e-17 -0.2300000042 4.906666756)
(0 0.2300000042 4.945000172)
(-4.225031443e-17 -0.2300000042 4.945000172)
(0 0.2300000042 4.983333111)
(-4.225031443e-17 -0.2300000042 4.983333111)
(0 0.2300000042 5.021666527)
(-4.225031443e-17 -0.2300000042 5.021666527)
(0 0.2300000042 5.059999943)
(-4.225031443e-17 -0.2300000042 5.059999943)
(0 0.2300000042 5.098333359)
(-4.225031443e-17 -0.2300000042 5.098333359)
(0 0.2300000042 5.136666775)
(-4.225031443e-17 -0.2300000042 5.136666775)
(0 0.2300000042 5.175000191)
(-4.225031443e-17 -0.2300000042 5.175000191)
(0 0.2300000042 5.21333313)
(-4.225031443e-17 -0.2300000042 5.21333313)
(0 0.2300000042 5.251666546)
(-4.225031443e-17 -0.2300000042 5.251666546)
(0 0.2300000042 5.289999962)
(-4.225031443e-17 -0.2300000042 5.289999962)
(0 0.2300000042 5.328333378)
(-4.225031443e-17 -0.2300000042 5.328333378)
(0 0.2300000042 5.366666794)
(-4.225031443e-17 -0.2300000042 5.366666794)
(0 0.2300000042 5.40500021)
(-4.225031443e-17 -0.2300000042 5.40500021)
(0 0.2300000042 5.443333149)
(-4.225031443e-17 -0.2300000042 5.443333149)
(0 0.2300000042 5.481666565)
(-4.225031443e-17 -0.2300000042 5.481666565)
(0 0.2300000042 5.519999981)
(-4.225031443e-17 -0.2300000042 5.519999981)
(0 0.2300000042 5.558333397)
(-4.225031443e-17 -0.2300000042 5.558333397)
(0 0.2300000042 5.596666813)
(-4.225031443e-17 -0.2300000042 5.596666813)
(0 0.2300000042 5.635000229)
(-4.225031443e-17 -0.2300000042 5.635000229)
(0 0.2300000042 5.673333168)
(-4.225031443e-17 -0.2300000042 5.673333168)
(0 0.2300000042 5.711666584)
(-4.225031443e-17 -0.2300000042 5.711666584)
(0 0.2300000042 5.75)
(-4.225031443e-17 -0.2300000042 5.75)
(0 0.2300000042 5.788333416)
(-4.225031443e-17 -0.2300000042 5.788333416)
(0 0.2300000042 5.826666832)
(-4.225031443e-17 -0.2300000042 5.826666832)
(0 0.2300000042 5.864999771)
(-4.225031443e-17 -0.2300000042 5.864999771)
(0 0.2300000042 5.903333187)
(-4.225031443e-17 -0.2300000042 5.903333187)
(0 0.2300000042 5.941666603)
(-4.225031443e-17 -0.2300000042 5.941666603)
(0 0.2300000042 5.980000019)
(-4.225031443e-17 -0.2300000042 5.980000019)
(0 0.2300000042 6.018333435)
(-4.225031443e-17 -0.2300000042 6.018333435)
(0 0.2300000042 6.056666851)
(-4.225031443e-17 -0.2300000042 6.056666851)
(0 0.2300000042 6.09499979)
(-4.225031443e-17 -0.2300000042 6.09499979)
(0 0.2300000042 6.133333206)
(-4.225031443e-17 -0.2300000042 6.133333206)
(0 0.2300000042 6.171666622)
(-4.225031443e-17 -0.2300000042 6.171666622)
(0 0.2300000042 6.210000038)
(-4.225031443e-17 -0.2300000042 6.210000038)
(0 0.2300000042 6.248333454)
(-4.225031443e-17 -0.2300000042 6.248333454)
(0 0.2300000042 6.28666687)
(-4.225031443e-17 -0.2300000042 6.28666687)
(0 0.2300000042 6.324999809)
(-4.225031443e-17 -0.2300000042 6.324999809)
(0 0.2300000042 6.363333225)
(-4.225031443e-17 -0.2300000042 6.363333225)
(0 0.2300000042 6.401666641)
(-4.225031443e-17 -0.2300000042 6.401666641)
(0 0.2300000042 6.440000057)
(-4.225031443e-17 -0.2300000042 6.440000057)
(0 0.2300000042 6.478333473)
(-4.225031443e-17 -0.2300000042 6.478333473)
(0 0.2300000042 6.516666889)
(-4.225031443e-17 -0.2300000042 6.516666889)
(0 0.2300000042 6.554999828)
(-4.225031443e-17 -0.2300000042 6.554999828)
(0 0.2300000042 6.593333244)
(-4.225031443e-17 -0.2300000042 6.593333244)
(0 0.2300000042 6.63166666)
(-4.225031443e-17 -0.2300000042 6.63166666)
(0 0.2300000042 6.670000076)
(-4.225031443e-17 -0.2300000042 6.670000076)
(0 0.2300000042 6.708333492)
(-4.225031443e-17 -0.2300000042 6.708333492)
(0 0.2300000042 6.746666431)
(-4.225031443e-17 -0.2300000042 6.746666431)
(0 0.2300000042 6.784999847)
(-4.225031443e-17 -0.2300000042 6.784999847)
(0 0.2300000042 6.823333263)
(-4.225031443e-17 -0.2300000042 6.823333263)
(0 0.2300000042 6.861666679)
(-4.225031443e-17 -0.2300000042 6.861666679)
(0 0.2300000042 6.900000095)
(-4.225031443e-17 -0.2300000042 6.900000095)
(0.02896250039 0.228169173 2.249835491)
(-1.064064957e-17 0.2300000042 2.242074966)
(0 0.2300000042 2.357924938)
(0 0.224287793 2.281237125)
(0 0.254824996 2.357924938)
(-1.064064957e-17 0.254824996 2.242074966)
(0 0.2796500027 2.357924938)
(-1.064064957e-17 0.2796500027 2.242074966)
(0 0.3044750094 2.357924938)
(-1.064064957e-17 0.3044750094 2.242074966)
(0 0.3292999864 2.357924938)
(-1.064064957e-17 0.3292999864 2.242074966)
(0 0.3541249931 2.357924938)
(-1.064064957e-17 0.3541249931 2.242074966)
(0 0.3789499998 2.357924938)
(-1.064064957e-17 0.3789499998 2.242074966)
(0 0.4037750065 2.357924938)
(-1.064064957e-17 0.4037750065 2.242074966)
(0 0.4286000133 2.357924938)
(-1.064064957e-17 0.4286000133 2.242074966)
(0 0.4534249902 2.357924938)
(-1.064064957e-17 0.4534249902 2.242074966)
(0 0.4782499969 2.357924938)
(-1.064064957e-17 0.4782499969 2.242074966)
(0 0.5030750036 2.357924938)
(-1.064064957e-17 0.5030750036 2.242074966)
(0 0.5278999805 2.357924938)
(-1.064064957e-17 0.5278999805 2.242074966)
(0 0.5527250171 2.357924938)
(-1.064064957e-17 0.5527250171 2.242074966)
(0 0.577549994 2.357924938)
(-1.064064957e-17 0.577549994 2.242074966)
(0 0.6023749709 2.357924938)
(-1.064064957e-17 0.6023749709 2.242074966)
(0 0.6272000074 2.357924938)
(-1.064064957e-17 0.6272000074 2.242074966)
(0 0.6520249844 2.357924938)
(-1.064064957e-17 0.6520249844 2.242074966)
(0 0.6768500209 2.357924938)
(-1.064064957e-17 0.6768500209 2.242074966)
(0 0.7016749978 2.357924938)
(-1.064064957e-17 0.7016749978 2.242074966)
(0 0.7264999747 2.357924938)
(-1.064064957e-17 0.7264999747 2.242074966)
(0 0.7513250113 2.357924938)
(-1.064064957e-17 0.7513250113 2.242074966)
(0 0.7761499882 2.357924938)
(-1.064064957e-17 0.7761499882 2.242074966)
(0 0.8009750247 2.357924938)
(-1.064064957e-17 0.8009750247 2.242074966)
(0 0.8258000016 2.357924938)
(-1.064064957e-17 0.8258000016 2.242074966)
(0 0.8506249785 2.357924938)
(-1.064064957e-17 0.8506249785 2.242074966)
(0 0.8754500151 2.357924938)
(-1.064064957e-17 0.8754500151 2.242074966)
(0 0.900274992 2.357924938)
(-1.064064957e-17 0.900274992 2.242074966)
(0 0.9251000285 2.357924938)
(-1.064064957e-17 0.9251000285 2.242074966)
(0 0.9499250054 2.357924938)
(-1.064064957e-17 0.9499250054 2.242074966)
(0 0.9747499824 2.357924938)
(-1.064064957e-17 0.9747499824 2.242074966)
(0 0.9995750189 2.357924938)
(-1.064064957e-17 0.9995750189 2.242074966)
(0 1.024399996 2.357924938)
(-1.064064957e-17 1.024399996 2.242074966)
(0 1.049224973 2.357924938)
(-1.064064957e-17 1.049224973 2.242074966)
(0 1.07404995 2.357924938)
(-1.064064957e-17 1.07404995 2.242074966)
(0 1.098875046 2.357924938)
(-1.064064957e-17 1.098875046 2.242074966)
(0 1.123700023 2.357924938)
(-1.064064957e-17 1.123700023 2.242074966)
(0 1.148525 2.357924938)
(-1.064064957e-17 1.148525 2.242074966)
(0 1.173349977 2.357924938)
(-1.064064957e-17 1.173349977 2.242074966)
(0 1.198174953 2.357924938)
(-1.064064957e-17 1.198174953 2.242074966)
(0 1.22300005 2.357924938)
(-1.064064957e-17 1.22300005 2.242074966)
(0 1.247825027 2.357924938)
(-1.064064957e-17 1.247825027 2.242074966)
(0 1.272650003 2.357924938)
(-1.064064957e-17 1.272650003 2.242074966)
(0 1.29747498 2.357924938)
(-1.064064957e-17 1.29747498 2.242074966)
(0 1.322299957 2.357924938)
(-1.064064957e-17 1.322299957 2.242074966)
(0 1.347125053 2.357924938)
(-1.064064957e-17 1.347125053 2.242074966)
(0 1.37195003 2.357924938)
(-1.064064957e-17 1.37195003 2.242074966)
(0 1.396775007 2.357924938)
(-1.064064957e-17 1.396775007 2.242074966)
(0 1.421599984 2.357924938)
(-1.064064957e-17 1.421599984 2.242074966)
(0 1.446424961 2.357924938)
(-1.064064957e-17 1.446424961 2.242074966)
(0 1.471250057 2.357924938)
(-1.064064957e-17 1.471250057 2.242074966)
(0 1.496075034 2.357924938)
(-1.064064957e-17 1.496075034 2.242074966)
(0 1.520900011 2.357924938)
(-1.064064957e-17 1.520900011 2.242074966)
(0 1.545724988 2.357924938)
(-1.064064957e-17 1.545724988 2.242074966)
(0 1.570549965 2.357924938)
(-1.064064957e-17 1.570549965 2.242074966)
(0 1.595374942 2.357924938)
(-1.064064957e-17 1.595374942 2.242074966)
(0 1.620200038 2.357924938)
(-1.064064957e-17 1.620200038 2.242074966)
(0 0.2292476147 2.358579397)
(0.2300000042 -5.633375257e-17 0)
(0.2295075506 0.01504271943 0)
(0.2280323207 0.03002102487 0)
(0.2255806178 0.04487077519 0)
(0.2221629471 0.05952838063 0)
(0.2177939266 0.07393107563 0)
(0.2124922872 0.08801718801 0)
(0.2062807232 0.1017263979 0)
(0.1991858482 0.1150000021 0)
(0.1912380159 0.1277811527 0)
(0.1824712753 0.1400151253 0)
(0.1729231626 0.1516495347 0)
(0.1626345664 0.1626345664 0)
(0.1516495347 0.1729231626 0)
(0.1400151253 0.1824712753 0)
(0.1277811527 0.1912380159 0)
(0.1150000021 0.1991858482 0)
(0.1017263979 0.2062807232 0)
(0.08801718801 0.2124922872 0)
(0.07393107563 0.2177939266 0)
(0.05952838063 0.2221629471 0)
(0.04487077519 0.2255806178 0)
(0.03002102487 0.2280323207 0)
(0.01504271943 0.2295075506 0)
(0.01504271943 -0.2295075506 0)
(0.03002102487 -0.2280323207 0)
(0.04487077519 -0.2255806178 0)
(0.05952838063 -0.2221629471 0)
(0.07393107563 -0.2177939266 0)
(0.08801718801 -0.2124922872 0)
(0.1017263979 -0.2062807232 0)
(0.1150000021 -0.1991858482 0)
(0.1277811527 -0.1912380159 0)
(0.1400151253 -0.1824712753 0)
(0.1516495347 -0.1729231626 0)
(0.1626345664 -0.1626345664 0)
(0.1729231626 -0.1516495347 0)
(0.1824712753 -0.1400151253 0)
(0.1912380159 -0.1277811527 0)
(0.1991858482 -0.1150000021 0)
(0.2062807232 -0.1017263979 0)
(0.2124922872 -0.08801718801 0)
(0.2177939266 -0.07393107563 0)
(0.2221629471 -0.05952838063 0)
(0.2255806178 -0.04487077519 0)
(0.2280323207 -0.03002102487 0)
(0.2295075506 -0.01504271943 0)
(0.2295075506 0.01504271943 6.900000095)
(0.2300000042 -5.633375257e-17 6.900000095)
(0.2280323207 0.03002102487 6.900000095)
(0.2255806178 0.04487077519 6.900000095)
(0.2221629471 0.05952838063 6.900000095)
(0.2177939266 0.07393107563 6.900000095)
(0.2124922872 0.08801718801 6.900000095)
(0.2062807232 0.1017263979 6.900000095)
(0.1991858482 0.1150000021 6.900000095)
(0.1912380159 0.1277811527 6.900000095)
(0.1824712753 0.1400151253 6.900000095)
(0.1729231626 0.1516495347 6.900000095)
(0.1626345664 0.1626345664 6.900000095)
(0.1516495347 0.1729231626 6.900000095)
(0.1400151253 0.1824712753 6.900000095)
(0.1277811527 0.1912380159 6.900000095)
(0.1150000021 0.1991858482 6.900000095)
(0.1017263979 0.2062807232 6.900000095)
(0.08801718801 0.2124922872 6.900000095)
(0.07393107563 0.2177939266 6.900000095)
(0.05952838063 0.2221629471 6.900000095)
(0.04487077519 0.2255806178 6.900000095)
(0.03002102487 0.2280323207 6.900000095)
(0.01504271943 0.2295075506 6.900000095)
(0.01504271943 -0.2295075506 6.900000095)
(0.03002102487 -0.2280323207 6.900000095)
(0.04487077519 -0.2255806178 6.900000095)
(0.05952838063 -0.2221629471 6.900000095)
(0.07393107563 -0.2177939266 6.900000095)
(0.08801718801 -0.2124922872 6.900000095)
(0.1017263979 -0.2062807232 6.900000095)
(0.1150000021 -0.1991858482 6.900000095)
(0.1277811527 -0.1912380159 6.900000095)
(0.1400151253 -0.1824712753 6.900000095)
(0.1516495347 -0.1729231626 6.900000095)
(0.1626345664 -0.1626345664 6.900000095)
(0.1729231626 -0.1516495347 6.900000095)
(0.1824712753 -0.1400151253 6.900000095)
(0.1912380159 -0.1277811527 6.900000095)
(0.1991858482 -0.1150000021 6.900000095)
(0.2062807232 -0.1017263979 6.900000095)
(0.2124922872 -0.08801718801 6.900000095)
(0.2177939266 -0.07393107563 6.900000095)
(0.2221629471 -0.05952838063 6.900000095)
(0.2255806178 -0.04487077519 6.900000095)
(0.2280323207 -0.03002102487 6.900000095)
(0.2295075506 -0.01504271943 6.900000095)
(0 0.2285005748 2.35895133)
(0 0.2277617604 2.359071016)
(0 0.2270339578 2.358966351)
(0 0.2263199687 2.358660221)
(0 0.22562249 2.358173132)
(0 0.2249442339 2.357523441)
(0 0.224287793 2.356725931)
(0 0.223655805 2.35579443)
(0 0.2230507284 2.354739666)
(0 0.2224750519 2.353571653)
(0 0.2219311446 2.352298737)
(0 0.2214212567 2.350928068)
(0 0.2209476084 2.349464893)
(0 0.2205122262 2.347914696)
(0 0.2201170623 2.346280813)
(0 0.2197639048 2.344566345)
(0 0.2194543779 2.342774153)
(0 0.2191899121 2.340905428)
(0 0.218971774 2.338961124)
(0 0.2188009918 2.336941719)
(0 0.2186784297 2.334847212)
(0 0.2186046243 2.332676649)
(0 0.2185799927 2.330429316)
(0 0.2186046243 2.328103304)
(0 0.2186784297 2.325696468)
(0 0.2188009918 2.323206186)
(0 0.218971774 2.320629835)
(0 0.2191899121 2.3179636)
(0 0.2194543779 2.315203428)
(0 0.2197639048 2.312345505)
(0 0.2201170623 2.309384584)
(0 0.2205122262 2.306314945)
(0 0.2209476084 2.303131342)
(0 0.2214212567 2.299827099)
(0 0.2219311446 2.29639554)
(0 0.2224750519 2.292828798)
(0 0.2230507284 2.289119244)
(0 0.223655805 2.285258293)
(0 0.224287793 2.290727854)
(0 0.224287793 2.300218582)
(0 0.225248754 2.307116032)
(0 0.2262033671 2.316439152)
(0 0.2271537632 2.329661369)
(0 0.2281019688 2.349758387)
(3.469446952e-18 0.2290500402 2.383769751)
(0.05780097842 1.620200038 2.303788424)
(0.05792500079 1.620200038 2.299999952)
(0.05742944404 1.620200038 2.307560682)
(0.05681198835 1.620200038 2.311300516)
(0.05595125258 1.620200038 2.314992189)
(0.05485092849 1.620200038 2.31861949)
(0.05351572111 1.620200038 2.32216692)
(0.05195135251 1.620200038 2.325619459)
(0.05016452074 1.620200038 2.328962564)
(0.04816287756 1.620200038 2.332181454)
(0.04595499113 1.620200038 2.335262537)
(0.04355031997 1.620200038 2.338192701)
(0.04095916077 1.620200038 2.340959072)
(0.03819260746 1.620200038 2.343550205)
(0.03526250646 1.620200038 2.345954895)
(0.03218140453 1.620200038 2.348162889)
(0.02896250039 1.620200038 2.350164413)
(0.02561957203 1.620200038 2.351951361)
(0.02216693759 1.620200038 2.353515625)
(0.01861938089 1.620200038 2.354851007)
(0.01499209274 1.620200038 2.355951309)
(0.01130060665 1.620200038 2.356812)
(0.007560729515 1.620200038 2.357429504)
(0.003788476344 1.620200038 2.357800961)
(0.003788476344 1.620200038 2.242198944)
(0.007560729515 1.620200038 2.242570639)
(0.01130060665 1.620200038 2.243187904)
(0.01499209274 1.620200038 2.244048834)
(0.01861938089 1.620200038 2.245149136)
(0.02216693759 1.620200038 2.24648428)
(0.02561957203 1.620200038 2.248048544)
(0.02896250039 1.620200038 2.249835491)
(0.03218140453 1.620200038 2.251837015)
(0.03526250646 1.620200038 2.25404501)
(0.03819260746 1.620200038 2.256449699)
(0.04095916077 1.620200038 2.259040833)
(0.04355031997 1.620200038 2.261807442)
(0.04595499113 1.620200038 2.264737606)
(0.04816287756 1.620200038 2.267818689)
(0.05016452074 1.620200038 2.271037579)
(0.05195135251 1.620200038 2.274380445)
(0.05351572111 1.620200038 2.277832985)
(0.05485092849 1.620200038 2.281380653)
(0.05595125258 1.620200038 2.285007954)
(0.05681198835 1.620200038 2.288699389)
(0.05742944404 1.620200038 2.292439222)
(0.05780097842 1.620200038 2.296211481)
(0.01499209274 0.2295108587 2.355951309)
(0.01130060665 0.2297222167 2.356812)
(0.01861938089 0.2292451113 2.354851007)
(0.02216693759 0.228929311 2.353515625)
(0.02561957203 0.2285686731 2.351951361)
(0.02896250039 0.228169173 2.350164413)
(0.03218140453 0.2277374715 2.348162889)
(0.03526250646 0.2272807807 2.345954895)
(0.03819260746 0.2268068045 2.343550205)
(0.04095916077 0.226323545 2.340959072)
(0.04355031997 0.2258392572 2.338192701)
(0.04595499113 0.2253622413 2.335262537)
(0.04816287756 0.2249007225 2.332181454)
(0.05016452074 0.2244627327 2.328962564)
(0.05195135251 0.2240559161 2.325619459)
(0.05351572111 0.2236874253 2.32216692)
(0.05485092849 0.223363772 2.31861949)
(0.05595125258 0.2230906934 2.314992189)
(0.05681198835 0.222873047 2.311300516)
(0.05742944404 0.222714752 2.307560682)
(0.05780097842 0.2226186097 2.303788424)
(0.05792500079 0.2225863785 2.299999952)
(0.05780097842 0.2226186097 2.296211481)
(0.05742944404 0.222714752 2.292439222)
(0.05681198835 0.222873047 2.288699389)
(0.05595125258 0.2230906934 2.285007954)
(0.05485092849 0.223363772 2.281380653)
(0.05351572111 0.2236874253 2.277832985)
(0.05195135251 0.2240559161 2.274380445)
(0.05016452074 0.2244627327 2.271037579)
(0.04816287756 0.2249007225 2.267818689)
(0.04595499113 0.2253622413 2.264737606)
(0.04355031997 0.2258392572 2.261807442)
(0.04095916077 0.226323545 2.259040833)
(0.03819260746 0.2268068045 2.256449699)
(0.03526250646 0.2272807807 2.25404501)
(0.03218140453 0.2277374715 2.251837015)
(0.02561957203 0.2285686731 2.248048544)
(0.02216693759 0.228929311 2.24648428)
(0.01861938089 0.2292451113 2.245149136)
(0.01499209274 0.2295108587 2.244048834)
(0.01130060665 0.2297222167 2.243187904)
(0.007560729515 0.2298756987 2.242570639)
(0.003788476344 0.2299688011 2.242198944)
(0.003788476344 0.2299688011 2.357800961)
(0.007560729515 0.2298756987 2.357429504)
)


// edges:

1887
(
(658 659)
(660 658)
(661 660)
(662 661)
(663 662)
(664 663)
(665 664)
(666 665)
(667 666)
(668 667)
(669 668)
(670 669)
(671 670)
(672 671)
(673 672)
(674 673)
(675 674)
(676 675)
(677 676)
(678 677)
(679 678)
(680 679)
(681 680)
(682 681)
(683 682)
(684 683)
(685 684)
(686 685)
(687 686)
(688 687)
(689 688)
(690 689)
(691 690)
(692 691)
(693 692)
(694 693)
(358 355)
(355 694)
(695 355)
(696 695)
(697 696)
(698 697)
(699 698)
(700 699)
(701 700)
(356 701)
(702 357)
(703 702)
(659 703)
(472 473)
(473 474)
(474 475)
(475 476)
(476 477)
(477 478)
(478 479)
(479 480)
(480 481)
(481 482)
(482 483)
(483 484)
(484 485)
(485 486)
(486 487)
(487 488)
(488 489)
(489 490)
(490 491)
(491 492)
(492 493)
(493 494)
(494 495)
(495 1)
(3 3)
(3 496)
(496 497)
(497 498)
(498 499)
(499 500)
(500 501)
(501 502)
(502 503)
(503 504)
(504 505)
(505 506)
(506 507)
(507 508)
(508 509)
(509 510)
(510 511)
(511 512)
(512 513)
(513 514)
(514 515)
(515 516)
(516 517)
(517 518)
(518 472)
(519 520)
(521 519)
(522 521)
(523 522)
(524 523)
(525 524)
(526 525)
(527 526)
(528 527)
(529 528)
(530 529)
(531 530)
(532 531)
(533 532)
(534 533)
(535 534)
(536 535)
(537 536)
(538 537)
(539 538)
(540 539)
(541 540)
(542 541)
(353 542)
(353 353)
(543 354)
(544 543)
(545 544)
(546 545)
(547 546)
(548 547)
(549 548)
(550 549)
(551 550)
(552 551)
(553 552)
(554 553)
(555 554)
(556 555)
(557 556)
(558 557)
(559 558)
(560 559)
(561 560)
(562 561)
(563 562)
(564 563)
(565 564)
(520 565)
(471 566)
(566 567)
(567 568)
(568 569)
(569 570)
(570 571)
(571 572)
(572 573)
(573 574)
(574 575)
(575 576)
(576 577)
(577 578)
(578 579)
(579 580)
(580 581)
(581 582)
(582 583)
(583 584)
(584 585)
(585 586)
(586 587)
(587 588)
(588 589)
(589 590)
(590 591)
(591 592)
(592 593)
(593 594)
(594 595)
(595 596)
(596 597)
(597 598)
(598 599)
(599 600)
(600 601)
(601 602)
(602 603)
(603 358)
(358 604)
(604 605)
(605 606)
(606 607)
(607 608)
(608 609)
(609 610)
(610 123)
(611 612)
(613 611)
(614 613)
(615 614)
(616 615)
(617 616)
(618 617)
(619 618)
(620 619)
(621 620)
(622 621)
(623 622)
(624 623)
(625 624)
(626 625)
(627 626)
(628 627)
(629 628)
(630 629)
(631 630)
(632 631)
(633 632)
(634 633)
(469 634)
(469 469)
(635 470)
(636 635)
(637 636)
(638 637)
(639 638)
(640 639)
(641 640)
(642 641)
(643 642)
(644 643)
(645 644)
(646 645)
(647 646)
(648 647)
(649 648)
(650 649)
(651 650)
(652 651)
(653 652)
(654 653)
(655 654)
(656 655)
(657 656)
(612 657)
(1 0)
(0 0)
(1 1)
(2 2)
(2 2)
(2 2)
(3 2)
(2 3)
(0 4)
(4 4)
(5 5)
(5 5)
(5 5)
(2 5)
(5 2)
(4 6)
(6 6)
(7 7)
(7 7)
(7 7)
(5 7)
(7 5)
(6 8)
(8 8)
(9 9)
(9 9)
(9 9)
(7 9)
(9 7)
(8 10)
(10 10)
(11 11)
(11 11)
(11 11)
(9 11)
(11 9)
(10 12)
(12 12)
(13 13)
(13 13)
(13 13)
(11 13)
(13 11)
(12 14)
(14 14)
(15 15)
(15 15)
(15 15)
(13 15)
(15 13)
(14 16)
(16 16)
(17 17)
(17 17)
(17 17)
(15 17)
(17 15)
(16 18)
(18 18)
(19 19)
(19 19)
(19 19)
(17 19)
(19 17)
(18 20)
(20 20)
(21 21)
(21 21)
(21 21)
(19 21)
(21 19)
(20 22)
(22 22)
(23 23)
(23 23)
(23 23)
(21 23)
(23 21)
(22 24)
(24 24)
(25 25)
(25 25)
(25 25)
(23 25)
(25 23)
(24 26)
(26 26)
(27 27)
(27 27)
(27 27)
(25 27)
(27 25)
(26 28)
(28 28)
(29 29)
(29 29)
(29 29)
(27 29)
(29 27)
(28 30)
(30 30)
(31 31)
(31 31)
(31 31)
(29 31)
(31 29)
(30 32)
(32 32)
(33 33)
(33 33)
(33 33)
(31 33)
(33 31)
(32 34)
(34 34)
(35 35)