/*--------------------------------*- C++ -*----------------------------------*\
| =========                 |                                                 |
| \\      /  F ield         | OpenFOAM: The Open Source CFD Toolbox           |
|  \\    /   O peration     | Version:  2406                                  |
|   \\  /    A nd           | Website:  www.openfoam.com                      |
|    \\/     M anipulation  |                                                 |
\*---------------------------------------------------------------------------*/
FoamFile
{
    version     2.0;
    format      ascii;
    arch        "LSB;label=32;scalar=64";
    class       featureEdgeMesh;
    location    "constant/triSurface";
    object      wall.eMesh;
}
// * * * * * * * * * * * * * * * * * * * * * * * * * * * * * * * * * * * * * //


// points:

722
(
(0 0.2300000042 0.03833333403)
(0 0.2300000042 3.588879921e-17)
(-4.225031443e-17 -0.2300000042 0.03833333403)
(-4.225031443e-17 -0.2300000042 0)
(0 0.2300000042 0.07666666806)
(-4.225031443e-17 -0.2300000042 0.07666666806)
(0 0.2300000042 0.1150000021)
(-4.225031443e-17 -0.2300000042 0.1150000021)
(0 0.2300000042 0.1533333361)
(-4.225031443e-17 -0.2300000042 0.1533333361)
(0 0.2300000042 0.1916666627)
(-4.225031443e-17 -0.2300000042 0.1916666627)
(0 0.2300000042 0.2300000042)
(-4.225031443e-17 -0.2300000042 0.2300000042)
(0 0.2300000042 0.2683333457)
(-4.225031443e-17 -0.2300000042 0.2683333457)
(0 0.2300000042 0.3066666722)
(-4.225031443e-17 -0.2300000042 0.3066666722)
(0 0.2300000042 0.3449999988)
(-4.225031443e-17 -0.2300000042 0.3449999988)
(0 0.2300000042 0.3833333254)
(-4.225031443e-17 -0.2300000042 0.3833333254)
(0 0.2300000042 0.421666652)
(-4.225031443e-17 -0.2300000042 0.421666652)
(0 0.2300000042 0.4600000083)
(-4.225031443e-17 -0.2300000042 0.4600000083)
(0 0.2300000042 0.4983333349)
(-4.225031443e-17 -0.2300000042 0.4983333349)
(0 0.2300000042 0.5366666913)
(-4.225031443e-17 -0.2300000042 0.5366666913)
(0 0.2300000042 0.5749999881)
(-4.225031443e-17 -0.2300000042 0.5749999881)
(0 0.2300000042 0.6133333445)
(-4.225031443e-17 -0.2300000042 0.6133333445)
(0 0.2300000042 0.6516666412)
(-4.225031443e-17 -0.2300000042 0.6516666412)
(0 0.2300000042 0.6899999976)
(-4.225031443e-17 -0.2300000042 0.6899999976)
(0 0.2300000042 0.728333354)
(-4.225031443e-17 -0.2300000042 0.728333354)
(0 0.2300000042 0.7666666508)
(-4.225031443e-17 -0.2300000042 0.7666666508)
(0 0.2300000042 0.8050000072)
(-4.225031443e-17 -0.2300000042 0.8050000072)
(0 0.2300000042 0.8433333039)
(-4.225031443e-17 -0.2300000042 0.8433333039)
(0 0.2300000042 0.8816666603)
(-4.225031443e-17 -0.2300000042 0.8816666603)
(0 0.2300000042 0.9200000167)
(-4.225031443e-17 -0.2300000042 0.9200000167)
(0 0.2300000042 0.9583333135)
(-4.225031443e-17 -0.2300000042 0.9583333135)
(0 0.2300000042 0.9966666698)
(-4.225031443e-17 -0.2300000042 0.9966666698)
(0 0.2300000042 1.034999967)
(-4.225031443e-17 -0.2300000042 1.034999967)
(0 0.2300000042 1.073333383)
(-4.225031443e-17 -0.2300000042 1.073333383)
(0 0.2300000042 1.111666679)
(-4.225031443e-17 -0.2300000042 1.111666679)
(0 0.2300000042 1.149999976)
(-4.225031443e-17 -0.2300000042 1.149999976)
(0 0.2300000042 1.188333392)
(-4.225031443e-17 -0.2300000042 1.188333392)
(0 0.2300000042 1.226666689)
(-4.225031443e-17 -0.2300000042 1.226666689)
(0 0.2300000042 1.264999986)
(-4.225031443e-17 -0.2300000042 1.264999986)
(0 0.2300000042 1.303333282)
(-4.225031443e-17 -0.2300000042 1.303333282)
(0 0.2300000042 1.341666698)
(-4.225031443e-17 -0.2300000042 1.341666698)
(0 0.2300000042 1.379999995)
(-4.225031443e-17 -0.2300000042 1.379999995)
(0 0.2300000042 1.418333292)
(-4.225031443e-17 -0.2300000042 1.418333292)
(0 0.2300000042 1.456666708)
(-4.225031443e-17 -0.2300000042 1.456666708)
(0 0.2300000042 1.495000005)
(-4.225031443e-17 -0.2300000042 1.495000005)
(0 0.2300000042 1.533333302)
(-4.225031443e-17 -0.2300000042 1.533333302)
(0 0.2300000042 1.571666718)
(-4.225031443e-17 -0.2300000042 1.571666718)
(0 0.2300000042 1.610000014)
(-4.225031443e-17 -0.2300000042 1.610000014)
(0 0.2300000042 1.648333311)
(-4.225031443e-17 -0.2300000042 1.648333311)
(0 0.2300000042 1.686666608)
(-4.225031443e-17 -0.2300000042 1.686666608)
(0 0.2300000042 1.725000024)
(-4.225031443e-17 -0.2300000042 1.725000024)
(0 0.2300000042 1.763333321)
(-4.225031443e-17 -0.2300000042 1.763333321)
(0 0.2300000042 1.801666617)
(-4.225031443e-17 -0.2300000042 1.801666617)
(0 0.2300000042 1.840000033)
(-4.225031443e-17 -0.2300000042 1.840000033)
(0 0.2300000042 1.87833333)
(-4.225031443e-17 -0.2300000042 1.87833333)
(0 0.2300000042 1.916666627)
(-4.225031443e-17 -0.2300000042 1.916666627)
(0 0.2300000042 1.955000043)
(-4.225031443e-17 -0.2300000042 1.955000043)
(0 0.2300000042 1.99333334)
(-4.225031443e-17 -0.2300000042 1.99333334)
(0 0.2300000042 2.031666756)
(-4.225031443e-17 -0.2300000042 2.031666756)
(0 0.2300000042 2.069999933)
(-4.225031443e-17 -0.2300000042 2.069999933)
(-4.225031443e-17 -0.2300000042 2.108333349)
(-4.225031443e-17 -0.2300000042 2.146666765)
(-4.225031443e-17 -0.2300000042 2.184999943)
(-4.225031443e-17 -0.2300000042 2.223333359)
(-4.225031443e-17 -0.2300000042 2.261666775)
(-4.225031443e-17 -0.2300000042 2.299999952)
(-4.225031443e-17 -0.2300000042 2.338333368)
(-4.225031443e-17 -0.2300000042 2.376666784)
(-4.225031443e-17 -0.2300000042 2.414999962)
(-4.225031443e-17 -0.2300000042 2.453333378)
(-4.225031443e-17 -0.2300000042 2.491666555)
(-4.225031443e-17 -0.2300000042 2.529999971)
(0 0.2300000042 2.568333387)
(1.408343814e-17 0.2300000042 2.529999971)
(-4.225031443e-17 -0.2300000042 2.568333387)
(0 0.2300000042 2.606666565)
(-4.225031443e-17 -0.2300000042 2.606666565)
(0 0.2300000042 2.644999981)
(-4.225031443e-17 -0.2300000042 2.644999981)
(0 0.2300000042 2.683333397)
(-4.225031443e-17 -0.2300000042 2.683333397)
(0 0.2300000042 2.721666574)
(-4.225031443e-17 -0.2300000042 2.721666574)
(0 0.2300000042 2.75999999)
(-4.225031443e-17 -0.2300000042 2.75999999)
(0 0.2300000042 2.798333406)
(-4.225031443e-17 -0.2300000042 2.798333406)
(0 0.2300000042 2.836666584)
(-4.225031443e-17 -0.2300000042 2.836666584)
(0 0.2300000042 2.875)
(-4.225031443e-17 -0.2300000042 2.875)
(0 0.2300000042 2.913333416)
(-4.225031443e-17 -0.2300000042 2.913333416)
(0 0.2300000042 2.951666594)
(-4.225031443e-17 -0.2300000042 2.951666594)
(0 0.2300000042 2.99000001)
(-4.225031443e-17 -0.2300000042 2.99000001)
(0 0.2300000042 3.028333426)
(-4.225031443e-17 -0.2300000042 3.028333426)
(0 0.2300000042 3.066666603)
(-4.225031443e-17 -0.2300000042 3.066666603)
(0 0.2300000042 3.105000019)
(-4.225031443e-17 -0.2300000042 3.105000019)
(0 0.2300000042 3.143333435)
(-4.225031443e-17 -0.2300000042 3.143333435)
(0 0.2300000042 3.181666613)
(-4.225031443e-17 -0.2300000042 3.181666613)
(0 0.2300000042 3.220000029)
(-4.225031443e-17 -0.2300000042 3.220000029)
(0 0.2300000042 3.258333445)
(-4.225031443e-17 -0.2300000042 3.258333445)
(0 0.2300000042 3.296666622)
(-4.225031443e-17 -0.2300000042 3.296666622)
(0 0.2300000042 3.335000038)
(-4.225031443e-17 -0.2300000042 3.335000038)
(0 0.2300000042 3.373333216)
(-4.225031443e-17 -0.2300000042 3.373333216)
(0 0.2300000042 3.411666632)
(-4.225031443e-17 -0.2300000042 3.411666632)
(0 0.2300000042 3.450000048)
(-4.225031443e-17 -0.2300000042 3.450000048)
(0 0.2300000042 3.488333225)
(-4.225031443e-17 -0.2300000042 3.488333225)
(0 0.2300000042 3.526666641)
(-4.225031443e-17 -0.2300000042 3.526666641)
(0 0.2300000042 3.565000057)
(-4.225031443e-17 -0.2300000042 3.565000057)
(0 0.2300000042 3.603333235)
(-4.225031443e-17 -0.2300000042 3.603333235)
(0 0.2300000042 3.641666651)
(-4.225031443e-17 -0.2300000042 3.641666651)
(0 0.2300000042 3.680000067)
(-4.225031443e-17 -0.2300000042 3.680000067)
(0 0.2300000042 3.718333244)
(-4.225031443e-17 -0.2300000042 3.718333244)
(0 0.2300000042 3.75666666)
(-4.225031443e-17 -0.2300000042 3.75666666)
(0 0.2300000042 3.795000076)
(-4.225031443e-17 -0.2300000042 3.795000076)
(0 0.2300000042 3.833333254)
(-4.225031443e-17 -0.2300000042 3.833333254)
(0 0.2300000042 3.87166667)
(-4.225031443e-17 -0.2300000042 3.87166667)
(0 0.2300000042 3.910000086)
(-4.225031443e-17 -0.2300000042 3.910000086)
(0 0.2300000042 3.948333263)
(-4.225031443e-17 -0.2300000042 3.948333263)
(0 0.2300000042 3.986666679)
(-4.225031443e-17 -0.2300000042 3.986666679)
(0 0.2300000042 4.025000095)
(-4.225031443e-17 -0.2300000042 4.025000095)
(0 0.2300000042 4.063333511)
(-4.225031443e-17 -0.2300000042 4.063333511)
(0 0.2300000042 4.101666451)
(-4.225031443e-17 -0.2300000042 4.101666451)
(0 0.2300000042 4.139999866)
(-4.225031443e-17 -0.2300000042 4.139999866)
(0 0.2300000042 4.178333282)
(-4.225031443e-17 -0.2300000042 4.178333282)
(0 0.2300000042 4.216666698)
(-4.225031443e-17 -0.2300000042 4.216666698)
(0 0.2300000042 4.255000114)
(-4.225031443e-17 -0.2300000042 4.255000114)
(0 0.2300000042 4.29333353)
(-4.225031443e-17 -0.2300000042 4.29333353)
(0 0.2300000042 4.33166647)
(-4.225031443e-17 -0.2300000042 4.33166647)
(0 0.2300000042 4.369999886)
(-4.225031443e-17 -0.2300000042 4.369999886)
(0 0.2300000042 4.408333302)
(-4.225031443e-17 -0.2300000042 4.408333302)
(0 0.2300000042 4.446666718)
(-4.225031443e-17 -0.2300000042 4.446666718)
(0 0.2300000042 4.485000134)
(-4.225031443e-17 -0.2300000042 4.485000134)
(0 0.2300000042 4.523333549)
(-4.225031443e-17 -0.2300000042 4.523333549)
(0 0.2300000042 4.561666489)
(-4.225031443e-17 -0.2300000042 4.561666489)
(0 0.2300000042 4.599999905)
(-4.225031443e-17 -0.2300000042 4.599999905)
(0 0.2300000042 4.638333321)
(-4.225031443e-17 -0.2300000042 4.638333321)
(0 0.2300000042 4.676666737)
(-4.225031443e-17 -0.2300000042 4.676666737)
(0 0.2300000042 4.715000153)
(-4.225031443e-17 -0.2300000042 4.715000153)
(0 0.2300000042 4.753333569)
(-4.225031443e-17 -0.2300000042 4.753333569)
(0 0.2300000042 4.791666508)
(-4.225031443e-17 -0.2300000042 4.791666508)
(0 0.2300000042 4.829999924)
(-4.225031443e-17 -0.2300000042 4.829999924)
(0 0.2300000042 4.86833334)
(-4.225031443e-17 -0.2300000042 4.86833334)
(0 0.2300000042 4.906666756)
(-4.225031443e-17 -0.2300000042 4.906666756)
(0 0.2300000042 4.945000172)
(-4.225031443e-17 -0.2300000042 4.945000172)
(0 0.2300000042 4.983333111)
(-4.225031443e-17 -0.2300000042 4.983333111)
(0 0.2300000042 5.021666527)
(-4.225031443e-17 -0.2300000042 5.021666527)
(0 0.2300000042 5.059999943)
(-4.225031443e-17 -0.2300000042 5.059999943)
(0 0.2300000042 5.098333359)
(-4.225031443e-17 -0.2300000042 5.098333359)
(0 0.2300000042 5.136666775)
(-4.225031443e-17 -0.2300000042 5.136666775)
(0 0.2300000042 5.175000191)
(-4.225031443e-17 -0.2300000042 5.175000191)
(0 0.2300000042 5.21333313)
(-4.225031443e-17 -0.2300000042 5.21333313)
(0 0.2300000042 5.251666546)
(-4.225031443e-17 -0.2300000042 5.251666546)
(0 0.2300000042 5.289999962)
(-4.225031443e-17 -0.2300000042 5.289999962)
(0 0.2300000042 5.328333378)
(-4.225031443e-17 -0.2300000042 5.328333378)
(0 0.2300000042 5.366666794)
(-4.225031443e-17 -0.2300000042 5.366666794)
(0 0.2300000042 5.40500021)
(-4.225031443e-17 -0.2300000042 5.40500021)
(0 0.2300000042 5.443333149)
(-4.225031443e-17 -0.2300000042 5.443333149)
(0 0.2300000042 5.481666565)
(-4.225031443e-17 -0.2300000042 5.481666565)
(0 0.2300000042 5.519999981)
(-4.225031443e-17 -0.2300000042 5.519999981)
(0 0.2300000042 5.558333397)
(-4.225031443e-17 -0.2300000042 5.558333397)
(0 0.2300000042 5.596666813)
(-4.225031443e-17 -0.2300000042 5.596666813)
(0 0.2300000042 5.635000229)
(-4.225031443e-17 -0.2300000042 5.635000229)
(0 0.2300000042 5.673333168)
(-4.225031443e-17 -0.2300000042 5.673333168)
(0 0.2300000042 5.711666584)
(-4.225031443e-17 -0.2300000042 5.711666584)
(0 0.2300000042 5.75)
(-4.225031443e-17 -0.2300000042 5.75)
(0 0.2300000042 5.788333416)
(-4.225031443e-17 -0.2300000042 5.788333416)
(0 0.2300000042 5.826666832)
(-4.225031443e-17 -0.2300000042 5.826666832)
(0 0.2300000042 5.864999771)
(-4.225031443e-17 -0.2300000042 5.864999771)
(0 0.2300000042 5.903333187)
(-4.225031443e-17 -0.2300000042 5.903333187)
(0 0.2300000042 5.941666603)
(-4.225031443e-17 -0.2300000042 5.941666603)
(0 0.2300000042 5.980000019)
(-4.225031443e-17 -0.2300000042 5.980000019)
(0 0.2300000042 6.018333435)
(-4.225031443e-17 -0.2300000042 6.018333435)
(0 0.2300000042 6.056666851)
(-4.225031443e-17 -0.2300000042 6.056666851)
(0 0.2300000042 6.09499979)
(-4.225031443e-17 -0.2300000042 6.09499979)
(0 0.2300000042 6.133333206)
(-4.225031443e-17 -0.2300000042 6.133333206)
(0 0.2300000042 6.171666622)
(-4.225031443e-17 -0.2300000042 6.171666622)
(0 0.2300000042 6.210000038)
(-4.225031443e-17 -0.2300000042 6.210000038)
(0 0.2300000042 6.248333454)
(-4.225031443e-17 -0.2300000042 6.248333454)
(0 0.2300000042 6.28666687)
(-4.225031443e-17 -0.2300000042 6.28666687)
(0 0.2300000042 6.324999809)
(-4.225031443e-17 -0.2300000042 6.324999809)
(0 0.2300000042 6.363333225)
(-4.225031443e-17 -0.2300000042 6.363333225)
(0 0.2300000042 6.401666641)
(-4.225031443e-17 -0.2300000042 6.401666641)
(0 0.2300000042 6.440000057)
(-4.225031443e-17 -0.2300000042 6.440000057)
(0 0.2300000042 6.478333473)
(-4.225031443e-17 -0.2300000042 6.478333473)
(0 0.2300000042 6.516666889)
(-4.225031443e-17 -0.2300000042 6.516666889)
(0 0.2300000042 6.554999828)
(-4.225031443e-17 -0.2300000042 6.554999828)
(0 0.2300000042 6.593333244)
(-4.225031443e-17 -0.2300000042 6.593333244)
(0 0.2300000042 6.63166666)
(-4.225031443e-17 -0.2300000042 6.63166666)
(0 0.2300000042 6.670000076)
(-4.225031443e-17 -0.2300000042 6.670000076)
(0 0.2300000042 6.708333492)
(-4.225031443e-17 -0.2300000042 6.708333492)
(0 0.2300000042 6.746666431)
(-4.225031443e-17 -0.2300000042 6.746666431)
(0 0.2300000042 6.784999847)
(-4.225031443e-17 -0.2300000042 6.784999847)
(0 0.2300000042 6.823333263)
(-4.225031443e-17 -0.2300000042 6.823333263)
(0 0.2300000042 6.861666679)
(-4.225031443e-17 -0.2300000042 6.861666679)
(0 0.2300000042 6.900000095)
(-4.225031443e-17 -0.2300000042 6.900000095)
(0.02190770768 0.2289542556 2.172735214)
(-1.251987074e-17 0.2300000042 2.16369009)
(0 0.2300000042 2.436310053)
(0 0.2249365598 2.222456694)
(0 0.2452597469 2.409879446)
(-1.251987074e-17 0.2434436381 2.14040494)
(0 0.2605195045 2.383448601)
(-1.251987074e-17 0.2568872571 2.117119789)
(0 0.2757792473 2.357017994)
(-1.251987074e-17 0.2703309059 2.093834877)
(0 0.2910390198 2.330587387)
(-1.251987074e-17 0.2837745249 2.070549726)
(0 0.3062987626 2.304156542)
(-1.251987074e-17 0.2972181439 2.047264814)
(0 0.3215585053 2.277725935)
(-1.251987074e-17 0.3106617928 2.023979664)
(0 0.3368182778 2.251295328)
(-1.251987074e-17 0.3241054118 2.000694513)
(0 0.3520780206 2.224864721)
(-1.251987074e-17 0.3375490606 1.977409601)
(0 0.3673377931 2.198433876)
(-1.251987074e-17 0.3509926796 1.95412457)
(0 0.3825975358 2.172003269)
(-1.251987074e-17 0.3644363284 1.930839419)
(0 0.3978572786 2.145572662)
(-1.251987074e-17 0.3778799474 1.907554388)
(0 0.4131170511 2.119142056)
(-1.251987074e-17 0.3913235664 1.884269357)
(0 0.4283767939 2.09271121)
(-1.251987074e-17 0.4047672153 1.860984325)
(0 0.4436365366 2.066280603)
(-1.251987074e-17 0.4182108343 1.837699294)
(0 0.4588963091 2.039849997)
(-1.251987074e-17 0.4316544831 1.814414263)
(0 0.4741560519 2.01341939)
(-1.251987074e-17 0.4450981021 1.791129112)
(0 0.4894157946 1.986988664)
(-1.251987074e-17 0.4585417211 1.767844081)
(0 0.5046755672 1.960557938)
(-1.251987074e-17 0.4719853699 1.74455905)
(0 0.5199353099 1.934127331)
(-1.251987074e-17 0.4854289889 1.721274018)
(0 0.5351950526 1.907696605)
(-1.251987074e-17 0.4988726377 1.697988987)
(0 0.5504547954 1.881265998)
(-1.251987074e-17 0.5123162866 1.674703956)
(0 0.5657145977 1.854835272)
(-1.251987074e-17 0.5257598758 1.651418805)
(0 0.5809743404 1.828404665)
(-1.251987074e-17 0.5392035246 1.628133774)
(0 0.5962340832 1.801973939)
(-1.251987074e-17 0.5526471734 1.604848742)
(0 0.6114938259 1.775543332)
(-1.251987074e-17 0.5660907626 1.581563711)
(0 0.6267535686 1.749112606)
(-1.251987074e-17 0.5795344114 1.55827868)
(0 0.6420133114 1.722681999)
(-1.251987074e-17 0.5929780602 1.534993529)
(0 0.6572731137 1.696251273)
(-1.251987074e-17 0.6064216495 1.511708498)
(0 0.6725328565 1.669820666)
(-1.251987074e-17 0.6198652983 1.488423467)
(0 0.6877925992 1.64338994)
(-1.251987074e-17 0.6333089471 1.465138435)
(0 0.7030523419 1.616959333)
(-1.251987074e-17 0.6467525959 1.441853404)
(0 0.7183120847 1.590528607)
(-1.251987074e-17 0.6601961851 1.418568373)
(0 0.733571887 1.564098001)
(-1.251987074e-17 0.6736398339 1.395283222)
(0 0.7488316298 1.537667274)
(-1.251987074e-17 0.6870834827 1.371998191)
(0 0.7640913725 1.511236668)
(-1.251987074e-17 0.700527072 1.34871316)
(0 0.7793511152 1.484805942)
(-1.251987074e-17 0.7139707208 1.325428128)
(0 0.794610858 1.458375335)
(-1.251987074e-17 0.7274143696 1.302143097)
(0 0.8098706007 1.431944609)
(-1.251987074e-17 0.7408580184 1.278857946)
(0 0.825130403 1.405514002)
(-1.251987074e-17 0.7543016076 1.255572915)
(0 0.8403901458 1.379083276)
(-1.251987074e-17 0.7677452564 1.232287884)
(0 0.8556498885 1.352652669)
(-1.251987074e-17 0.7811889052 1.209002852)
(0 0.8709096313 1.326221943)
(-1.251987074e-17 0.7946324944 1.185717821)
(0 0.886169374 1.299791336)
(-1.251987074e-17 0.8080761433 1.16243279)
(0 0.9014291167 1.27336061)
(-1.251987074e-17 0.8215197921 1.139147639)
(0 0.9166889191 1.246929884)
(-1.251987074e-17 0.8349634409 1.115862608)
(0 0.9319486618 1.220499277)
(-1.251987074e-17 0.8484070301 1.092577577)
(0 0.9472084045 1.194068551)
(-1.251987074e-17 0.8618506789 1.069292545)
(0 0.9624681473 1.167637944)
(-1.251987074e-17 0.8752943277 1.046007514)
(0 0.97772789 1.141207218)
(-1.251987074e-17 0.8887379169 1.022722483)
(0 0.9929876924 1.114776611)
(-1.251987074e-17 0.9021815658 0.9994373918)
(0 1.008247375 1.088345885)
(-1.251987074e-17 0.9156252146 0.9761523008)
(0 1.023507118 1.061915278)
(-1.251987074e-17 0.9290688038 0.9528672695)
(0 1.03876698 1.035484552)
(-1.251987074e-17 0.9425124526 0.9295822382)
(0 1.054026723 1.009053946)
(-1.251987074e-17 0.9559561014 0.9062971473)
(0 1.069286466 0.9826232791)
(-1.251987074e-17 0.9693997502 0.883012116)
(0 1.084546208 0.9561926126)
(-1.251987074e-17 0.9828433394 0.8597270846)
(0 1.099805951 0.9297619462)
(-1.251987074e-17 0.9962869883 0.8364419937)
(0 1.115065694 0.9033312798)
(-1.251987074e-17 1.009730577 0.8131569624)
(0 1.130325437 0.8769006133)
(-1.251987074e-17 1.023174286 0.7898718715)
(0 1.145585179 0.8504699469)
(-1.251987074e-17 1.036617875 0.7665868402)
(0 1.160844922 0.8240392804)
(-1.251987074e-17 1.050061464 0.7433018088)
(0 1.176104665 0.797608614)
(-1.251987074e-17 1.063505173 0.7200167179)
(0 1.191364408 0.7711779475)
(-1.251987074e-17 1.076948762 0.6967316866)
(0 1.20662415 0.7447472811)
(-1.251987074e-17 1.090392351 0.6734466553)
(0 1.221884012 0.718316555)
(-1.251987074e-17 1.10383606 0.6501615644)
(0 0.2289628983 2.436816931)
(0.2300000042 -5.633375257e-17 0)
(0.2295075506 0.01504271943 0)
(0.2280323207 0.03002102487 0)
(0.2255806178 0.04487077519 0)
(0.2221629471 0.05952838063 0)
(0.2177939266 0.07393107563 0)
(0.2124922872 0.08801718801 0)
(0.2062807232 0.1017263979 0)
(0.1991858482 0.1150000021 0)
(0.1912380159 0.1277811527 0)
(0.1824712753 0.1400151253 0)
(0.1729231626 0.1516495347 0)
(0.1626345664 0.1626345664 0)
(0.1516495347 0.1729231626 0)
(0.1400151253 0.1824712753 0)
(0.1277811527 0.1912380159 0)
(0.1150000021 0.1991858482 0)
(0.1017263979 0.2062807232 0)
(0.08801718801 0.2124922872 0)
(0.07393107563 0.2177939266 0)
(0.05952838063 0.2221629471 0)
(0.04487077519 0.2255806178 0)
(0.03002102487 0.2280323207 0)
(0.01504271943 0.2295075506 0)
(0.01504271943 -0.2295075506 0)
(0.03002102487 -0.2280323207 0)
(0.04487077519 -0.2255806178 0)
(0.05952838063 -0.2221629471 0)
(0.07393107563 -0.2177939266 0)
(0.08801718801 -0.2124922872 0)
(0.1017263979 -0.2062807232 0)
(0.1150000021 -0.1991858482 0)
(0.1277811527 -0.1912380159 0)
(0.1400151253 -0.1824712753 0)
(0.1516495347 -0.1729231626 0)
(0.1626345664 -0.1626345664 0)
(0.1729231626 -0.1516495347 0)
(0.1824712753 -0.1400151253 0)
(0.1912380159 -0.1277811527 0)
(0.1991858482 -0.1150000021 0)
(0.2062807232 -0.1017263979 0)
(0.2124922872 -0.08801718801 0)
(0.2177939266 -0.07393107563 0)
(0.2221629471 -0.05952838063 0)
(0.2255806178 -0.04487077519 0)
(0.2280323207 -0.03002102487 0)
(0.2295075506 -0.01504271943 0)
(0.2295075506 0.01504271943 6.900000095)
(0.2300000042 -5.633375257e-17 6.900000095)
(0.2280323207 0.03002102487 6.900000095)
(0.2255806178 0.04487077519 6.900000095)
(0.2221629471 0.05952838063 6.900000095)
(0.2177939266 0.07393107563 6.900000095)
(0.2124922872 0.08801718801 6.900000095)
(0.2062807232 0.1017263979 6.900000095)
(0.1991858482 0.1150000021 6.900000095)
(0.1912380159 0.1277811527 6.900000095)
(0.1824712753 0.1400151253 6.900000095)
(0.1729231626 0.1516495347 6.900000095)
(0.1626345664 0.1626345664 6.900000095)
(0.1516495347 0.1729231626 6.900000095)
(0.1400151253 0.1824712753 6.900000095)
(0.1277811527 0.1912380159 6.900000095)
(0.1150000021 0.1991858482 6.900000095)
(0.1017263979 0.2062807232 6.900000095)
(0.08801718801 0.2124922872 6.900000095)
(0.07393107563 0.2177939266 6.900000095)
(0.05952838063 0.2221629471 6.900000095)
(0.04487077519 0.2255806178 6.900000095)
(0.03002102487 0.2280323207 6.900000095)
(0.01504271943 0.2295075506 6.900000095)
(0.01504271943 -0.2295075506 6.900000095)
(0.03002102487 -0.2280323207 6.900000095)
(0.04487077519 -0.2255806178 6.900000095)
(0.05952838063 -0.2221629471 6.900000095)
(0.07393107563 -0.2177939266 6.900000095)
(0.08801718801 -0.2124922872 6.900000095)
(0.1017263979 -0.2062807232 6.900000095)
(0.1150000021 -0.1991858482 6.900000095)
(0.1277811527 -0.1912380159 6.900000095)
(0.1400151253 -0.1824712753 6.900000095)
(0.1516495347 -0.1729231626 6.900000095)
(0.1626345664 -0.1626345664 6.900000095)
(0.1729231626 -0.1516495347 6.900000095)
(0.1824712753 -0.1400151253 6.900000095)
(0.1912380159 -0.1277811527 6.900000095)
(0.1991858482 -0.1150000021 6.900000095)
(0.2062807232 -0.1017263979 6.900000095)
(0.2124922872 -0.08801718801 6.900000095)
(0.2177939266 -0.07393107563 6.900000095)
(0.2221629471 -0.05952838063 6.900000095)
(0.2255806178 -0.04487077519 6.900000095)
(0.2280323207 -0.03002102487 6.900000095)
(0.2295075506 -0.01504271943 6.900000095)
(0 0.227934286 2.436880827)
(0 0.2269179076 2.436550856)
(0 0.2259174734 2.43586731)
(0 0.2249365598 2.434864521)
(0 0.2239787579 2.433570623)
(0 0.2230475992 2.432008266)
(0 0.2221465558 2.430195808)
(0 0.2212790251 2.428147793)
(0 0.2204483896 2.425876141)
(0 0.2196579129 2.423388958)
(0 0.2189107984 2.420692682)
(-6.938893904e-18 0.2182101756 2.417791128)
(0 0.2175590396 2.414687157)
(0 0.2169602513 2.411381245)
(0 0.2164164931 2.407873154)
(0 0.2159302682 2.404161692)
(0 0.2155039161 2.400244474)
(0 0.2151394635 2.396118641)
(0 0.2148387283 2.391780853)
(0 0.2146032155 2.387227535)
(0 0.2144341171 2.382453918)
(0 0.2143323123 2.377456427)
(0 0.2142983079 2.372230053)
(0 0.2143323123 2.366770267)
(0 0.2144341171 2.36107254)
(0 0.2146032155 2.355132103)
(0 0.2148387283 2.348943949)
(0 0.2151394635 2.342503071)
(0 0.2155039161 2.335804462)
(0 0.2159302682 2.328843117)
(0 0.2164164931 2.321613073)
(0 0.2169602513 2.314109087)
(0 0.2175590396 2.30632472)
(-6.938893904e-18 0.2182101756 2.298253775)
(0 0.2189107984 2.289889336)
(0 0.2196579129 2.281224012)
(0 0.2204483896 2.272249937)
(0 0.2212790251 2.26295948)
(0 0.2221465558 2.253343821)
(0 0.2230475992 2.243394136)
(0 0.2239787579 2.233101368)
(0 0.2249365598 2.229249239)
(0 0.2249365598 2.236041784)
(0 0.2256734371 2.243937016)
(0 0.2264031321 2.254402161)
(0 0.2271272838 2.268845558)
(0 0.2278474867 2.289941311)
(0 0.2285653055 2.323458195)
(0 0.2292823046 2.384555578)
(0.0680090785 1.16672039 0.686467886)
(0.06815499812 1.162860036 0.6842390895)
(0.06757192314 1.170564175 0.6886870861)
(0.06684542447 1.174375057 0.6908872724)
(0.0658326745 1.178136468 0.6930589676)
(0.06453802437 1.181832671 0.6951929331)
(0.06296700984 1.185447454 0.6972799897)
(0.06112636253 1.188965678 0.6993111968)
(0.05902396142 1.192371964 0.7012778521)
(0.05666881055 1.195652008 0.7031715512)
(0.05407099798 1.198791504 0.7049841285)
(0.05124164373 1.20177722 0.7067079544)
(0.04819286242 1.204596281 0.7083355188)
(0.04493771493 1.207236528 0.7098599076)
(0.04149013385 1.209686875 0.7112745643)
(0.03786488995 1.211936593 0.7125734687)
(0.03407749906 1.213976264 0.7137510777)
(0.03014418483 1.215796947 0.7148022652)
(0.02608178928 1.217391014 0.7157225609)
(0.02190770768 1.21875155 0.7165080905)
(0.01763981208 1.219872713 0.7171553969)
(0.01329638064 1.220749855 0.717661798)
(0.008896012791 1.221379042 0.7180250287)
(0.004457550123 1.221757531 0.7182435989)
(0.004457550123 1.103962421 0.6502345204)
(0.008896012791 1.10434103 0.6504531503)
(0.01329638064 1.104970217 0.650816381)
(0.01763981208 1.105847239 0.6513227224)
(0.02190770768 1.106968403 0.6519700885)
(0.02608178928 1.108328938 0.6527555585)
(0.03014418483 1.109923005 0.6536759138)
(0.03407749906 1.111743808 0.6547271013)
(0.03786488995 1.11378336 0.6559046507)
(0.04149013385 1.116033196 0.6572036147)
(0.04493771493 1.118483424 0.6586182714)
(0.04819286242 1.121123791 0.6601426601)
(0.05124164373 1.123942852 0.6617702246)
(0.05407099798 1.126928449 0.6634939909)
(0.05666881055 1.130068064 0.6653066278)
(0.05902396142 1.133347988 0.6672003269)
(0.06112636253 1.136754394 0.6691669822)
(0.06296700984 1.140272498 0.6711981893)
(0.06453802437 1.143887401 0.6732852459)
(0.0658326745 1.147583485 0.6754191518)
(0.06684542447 1.151345015 0.6775909066)
(0.06757192314 1.155155778 0.6797910929)
(0.0680090785 1.158999681 0.682010293)
(0.004457550123 0.2299568057 2.436093092)
(0.008896012791 0.2298278958 2.435441971)
(0.01329638064 0.2296153456 2.434357166)
(0.01763981208 0.2293225676 2.432838678)
(0.02190770768 0.2289542556 2.430887222)
(0.02608178928 0.228516385 2.428503752)
(0.03014418483 0.2280160636 2.425688982)
(0.03407749906 0.2274614722 2.42244482)
(0.03786488995 0.2268617451 2.418773174)
(0.04149013385 0.2262268066 2.414677382)
(0.04493771493 0.2255672961 2.410161018)
(0.04819286242 0.2248943001 2.405229092)
(0.05124164373 0.2242192924 2.3998878)
(0.05407099798 0.2235538512 2.39414525)
(0.05666881055 0.2229094952 2.388010979)
(0.05902396142 0.2222974896 2.381496191)
(0.06112636253 0.2217285931 2.374614954)
(0.06296700984 0.2212129235 2.367383242)
(0.06453802437 0.2207596898 2.359820127)
(0.0658326745 0.2203770876 2.351947069)
(0.06684542447 0.2200720161 2.343788624)
(0.06757192314 0.2198500335 2.33537221)
(0.0680090785 0.2197151929 2.326728821)
(0.06815499812 0.2196699679 2.317892075)
(0.0680090785 0.2197151929 2.308898687)
(0.06757192314 0.2198500335 2.299788237)
(0.06684542447 0.2200720161 2.290602922)
(0.0658326745 0.2203770876 2.281387806)
(0.06453802437 0.2207596898 2.272189379)
(0.06296700984 0.2212129235 2.26305604)
(0.06112636253 0.2217285931 2.254038095)
(0.05902396142 0.2222974896 2.24518609)
(0.05666881055 0.2229094952 2.236551285)
(0.05407099798 0.2235538512 2.2281847)
(0.05124164373 0.2242192924 2.220137119)
(0.04819286242 0.2248943001 2.212457657)
(0.04493771493 0.2255672961 2.205194473)
(0.04149013385 0.2262268066 2.198393345)
(0.03786488995 0.2268617451 2.192097902)
(0.03407749906 0.2274614722 2.186348915)
(0.03014418483 0.2280160636 2.181183577)
(0.02608178928 0.228516385 2.176635742)
(0.01763981208 0.2293225676 2.16950798)
(0.01329638064 0.2296153456 2.166975498)
(0.008896012791 0.2298278958 2.165154219)
(0.004457550123 0.2299568057 2.164056778)
)


// edges:

1946
(
(676 353)
(677 676)
(678 677)
(679 678)
(680 679)
(681 680)
(682 681)
(683 682)
(684 683)
(685 684)
(686 685)
(687 686)
(688 687)
(689 688)
(690 689)
(691 690)
(692 691)
(693 692)
(694 693)
(695 694)
(696 695)
(697 696)
(698 697)
(699 698)
(700 699)
(701 700)
(702 701)
(703 702)
(704 703)
(705 704)
(706 705)
(707 706)
(708 707)
(709 708)
(710 709)
(711 710)
(712 711)
(713 712)
(714 713)
(715 714)
(716 715)
(717 716)
(354 351)
(351 717)
(718 351)
(719 718)
(720 719)
(721 720)
(352 721)
(486 487)
(487 488)
(488 489)
(489 490)
(490 491)
(491 492)
(492 493)
(493 494)
(494 495)
(495 496)
(496 497)
(497 498)
(498 499)
(499 500)
(500 501)
(501 502)
(502 503)
(503 504)
(504 505)
(505 506)
(506 507)
(507 508)
(508 509)
(509 1)
(3 3)
(3 510)
(510 511)
(511 512)
(512 513)
(513 514)
(514 515)
(515 516)
(516 517)
(517 518)
(518 519)
(519 520)
(520 521)
(521 522)
(522 523)
(523 524)
(524 525)
(525 526)
(526 527)
(527 528)
(528 529)
(529 530)
(530 531)
(531 532)
(532 486)
(533 534)
(535 533)
(536 535)
(537 536)
(538 537)
(539 538)
(540 539)
(541 540)
(542 541)
(543 542)
(544 543)
(545 544)
(546 545)
(547 546)
(548 547)
(549 548)
(550 549)
(551 550)
(552 551)
(553 552)
(554 553)
(555 554)
(556 555)
(349 556)
(349 349)
(557 350)
(558 557)
(559 558)
(560 559)
(561 560)
(562 561)
(563 562)
(564 563)
(565 564)
(566 565)
(567 566)
(568 567)
(569 568)
(570 569)
(571 570)
(572 571)
(573 572)
(574 573)
(575 574)
(576 575)
(577 576)
(578 577)
(579 578)
(534 579)
(485 580)
(580 581)
(581 582)
(582 583)
(583 584)
(584 585)
(585 586)
(586 587)
(587 588)
(588 589)
(589 590)
(590 591)
(591 592)
(592 593)
(593 594)
(594 595)
(595 596)
(596 597)
(597 598)
(598 599)
(599 600)
(600 601)
(601 602)
(602 603)
(603 604)
(604 605)
(605 606)
(606 607)
(607 608)
(608 609)
(609 610)
(610 611)
(611 612)
(612 613)
(613 614)
(614 615)
(615 616)
(616 617)
(617 618)
(618 619)
(619 620)
(620 354)
(354 621)
(621 622)
(622 623)
(623 624)
(624 625)
(625 626)
(626 627)
(627 628)
(628 123)
(629 630)
(631 629)
(632 631)
(633 632)
(634 633)
(635 634)
(636 635)
(637 636)
(638 637)
(639 638)
(640 639)
(641 640)
(642 641)
(643 642)
(644 643)
(645 644)
(646 645)
(647 646)
(648 647)
(649 648)
(650 649)
(651 650)
(652 651)
(483 652)
(483 483)
(653 484)
(654 653)
(655 654)
(656 655)
(657 656)
(658 657)
(659 658)
(660 659)
(661 660)
(662 661)
(663 662)
(664 663)
(665 664)
(666 665)
(667 666)
(668 667)
(669 668)
(670 669)
(671 670)
(672 671)
(673 672)
(674 673)
(675 674)
(630 675)
(1 0)
(0 0)
(1 1)
(2 2)
(2 2)
(2 2)
(3 2)
(2 3)