/*--------------------------------*- C++ -*----------------------------------*\
| =========                 |                                                 |
| \\      /  F ield         | OpenFOAM: The Open Source CFD Toolbox           |
|  \\    /   O peration     | Version:  2406                                  |
|   \\  /    A nd           | Website:  www.openfoam.com                      |
|    \\/     M anipulation  |                                                 |
\*---------------------------------------------------------------------------*/
FoamFile
{
    version     2.0;
    format      ascii;
    arch        "LSB;label=32;scalar=64";
    class       featureEdgeMesh;
    location    "constant/triSurface";
    object      branch_inlet.eMesh;
}
// * * * * * * * * * * * * * * * * * * * * * * * * * * * * * * * * * * * * * //


// points:

50
(
(0 1.398000002 0.2769646645)
(0 1.473993778 0.3208396435)
(-1.611941418e-17 1.322006226 0.2330896556)
(0.08756212145 1.402970195 0.2798342109)
(0.08775000274 1.398000002 0.2769646645)
(0.08699928969 1.407919168 0.2826914787)
(0.08606390655 1.412825584 0.2855242491)
(0.08475998789 1.417668581 0.2883203328)
(0.08309312165 1.422427416 0.2910678089)
(0.08107043058 1.427081585 0.2937549055)
(0.0787005797 1.43161118 0.2963700593)
(0.07599373162 1.43599689 0.298902154)
(0.07296145707 1.440219879 0.3013403118)
(0.06961675733 1.444262028 0.303674072)
(0.06597394496 1.44810617 0.305893451)
(0.06204862148 1.451735735 0.3079889715)
(0.05785759538 1.455135107 0.3099516332)
(0.05341881514 1.458289862 0.3117730319)
(0.04875128716 1.461186528 0.3134453893)
(0.04387500137 1.46381247 0.3149615228)
(0.03881083429 1.466156721 0.3163149357)
(0.03358047083 1.468209028 0.317499876)
(0.02820631303 1.469960809 0.3185112178)
(0.022711372 1.471404314 0.3193446398)
(0.01711917669 1.472533584 0.3199966252)
(0.01145367324 1.473343611 0.320464313)
(0.005739124492 1.473831058 0.3207457066)
(0.005739124492 1.322168946 0.2331835926)
(0.01145367324 1.322656393 0.2334650159)
(0.01711917669 1.32346642 0.2339327037)
(0.022711372 1.32459569 0.2345846593)
(0.02820631303 1.326039195 0.2354180962)
(0.03358047083 1.327790976 0.236429438)
(0.03881083429 1.329843283 0.2376143634)
(0.04387500137 1.332187533 0.2389677912)
(0.04875128716 1.334813476 0.2404839247)
(0.05341881514 1.337710142 0.2421562821)
(0.05785759538 1.340864897 0.2439776808)
(0.06204862148 1.344264269 0.2459403425)
(0.06597394496 1.347893834 0.248035863)
(0.06961675733 1.351737976 0.2502552569)
(0.07296145707 1.355780125 0.2525890172)
(0.07599373162 1.360003114 0.2550271451)
(0.0787005797 1.364388824 0.2575592399)
(0.08107043058 1.368918419 0.2601744235)
(0.08309312165 1.373572588 0.2628614902)
(0.08475998789 1.378331423 0.2656089664)
(0.08606390655 1.3831743 0.2684050798)
(0.08699928969 1.388080835 0.2712378204)
(0.08756212145 1.393029809 0.2740950882)
)


// edges:

54
(
(3 4)
(5 3)
(6 5)
(7 6)
(8 7)
(9 8)
(10 9)
(11 10)
(12 11)
(13 12)
(14 13)
(15 14)
(16 15)
(17 16)
(18 17)
(19 18)
(20 19)
(21 20)
(22 21)
(23 22)
(24 23)
(25 24)
(26 25)
(1 26)
(1 1)
(2 2)
(27 2)
(28 27)
(29 28)
(30 29)
(31 30)
(32 31)
(33 32)
(34 33)
(35 34)
(36 35)
(37 36)
(38 37)
(39 38)
(40 39)
(41 40)
(42 41)
(43 42)
(44 43)
(45 44)
(46 45)
(47 46)
(48 47)
(49 48)
(4 49)
(0 1)
(0 0)
(0 2)
(2 0)
)

// * * * * * * * * * * * * * * * * * * * * * * * * * * * * * * * * * * * * * //


// ************************************************************************* //
