/*--------------------------------*- C++ -*----------------------------------*\
| =========                 |                                                 |
| \\      /  F ield         | OpenFOAM: The Open Source CFD Toolbox           |
|  \\    /   O peration     | Version:  2406                                  |
|   \\  /    A nd           | Website:  www.openfoam.com                      |
|    \\/     M anipulation  |                                                 |
\*---------------------------------------------------------------------------*/
FoamFile
{
    version     2.0;
    format      ascii;
    arch        "LSB;label=32;scalar=64";
    class       featureEdgeMesh;
    location    "constant/triSurface";
    object      wall.eMesh;
}
// * * * * * * * * * * * * * * * * * * * * * * * * * * * * * * * * * * * * * //


// points:

753
(
(0 0.2300000042 0.03833333403)
(0 0.2300000042 3.588879921e-17)
(-4.225031443e-17 -0.2300000042 0.03833333403)
(-4.225031443e-17 -0.2300000042 0)
(0 0.2300000042 0.07666666806)
(-4.225031443e-17 -0.2300000042 0.07666666806)
(0 0.2300000042 0.1150000021)
(-4.225031443e-17 -0.2300000042 0.1150000021)
(0 0.2300000042 0.1533333361)
(-4.225031443e-17 -0.2300000042 0.1533333361)
(0 0.2300000042 0.1916666627)
(-4.225031443e-17 -0.2300000042 0.1916666627)
(0 0.2300000042 0.2300000042)
(-4.225031443e-17 -0.2300000042 0.2300000042)
(0 0.2300000042 0.2683333457)
(-4.225031443e-17 -0.2300000042 0.2683333457)
(0 0.2300000042 0.3066666722)
(-4.225031443e-17 -0.2300000042 0.3066666722)
(0 0.2300000042 0.3449999988)
(-4.225031443e-17 -0.2300000042 0.3449999988)
(0 0.2300000042 0.3833333254)
(-4.225031443e-17 -0.2300000042 0.3833333254)
(0 0.2300000042 0.421666652)
(-4.225031443e-17 -0.2300000042 0.421666652)
(0 0.2300000042 0.4600000083)
(-4.225031443e-17 -0.2300000042 0.4600000083)
(0 0.2300000042 0.4983333349)
(-4.225031443e-17 -0.2300000042 0.4983333349)
(0 0.2300000042 0.5366666913)
(-4.225031443e-17 -0.2300000042 0.5366666913)
(0 0.2300000042 0.5749999881)
(-4.225031443e-17 -0.2300000042 0.5749999881)
(0 0.2300000042 0.6133333445)
(-4.225031443e-17 -0.2300000042 0.6133333445)
(0 0.2300000042 0.6516666412)
(-4.225031443e-17 -0.2300000042 0.6516666412)
(0 0.2300000042 0.6899999976)
(-4.225031443e-17 -0.2300000042 0.6899999976)
(0 0.2300000042 0.728333354)
(-4.225031443e-17 -0.2300000042 0.728333354)
(0 0.2300000042 0.7666666508)
(-4.225031443e-17 -0.2300000042 0.7666666508)
(0 0.2300000042 0.8050000072)
(-4.225031443e-17 -0.2300000042 0.8050000072)
(0 0.2300000042 0.8433333039)
(-4.225031443e-17 -0.2300000042 0.8433333039)
(0 0.2300000042 0.8816666603)
(-4.225031443e-17 -0.2300000042 0.8816666603)
(0 0.2300000042 0.9200000167)
(-4.225031443e-17 -0.2300000042 0.9200000167)
(0 0.2300000042 0.9583333135)
(-4.225031443e-17 -0.2300000042 0.9583333135)
(0 0.2300000042 0.9966666698)
(-4.225031443e-17 -0.2300000042 0.9966666698)
(0 0.2300000042 1.034999967)
(-4.225031443e-17 -0.2300000042 1.034999967)
(0 0.2300000042 1.073333383)
(-4.225031443e-17 -0.2300000042 1.073333383)
(0 0.2300000042 1.111666679)
(-4.225031443e-17 -0.2300000042 1.111666679)
(0 0.2300000042 1.149999976)
(-4.225031443e-17 -0.2300000042 1.149999976)
(0 0.2300000042 1.188333392)
(-4.225031443e-17 -0.2300000042 1.188333392)
(0 0.2300000042 1.226666689)
(-4.225031443e-17 -0.2300000042 1.226666689)
(0 0.2300000042 1.264999986)
(-4.225031443e-17 -0.2300000042 1.264999986)
(0 0.2300000042 1.303333282)
(-4.225031443e-17 -0.2300000042 1.303333282)
(0 0.2300000042 1.341666698)
(-4.225031443e-17 -0.2300000042 1.341666698)
(0 0.2300000042 1.379999995)
(-4.225031443e-17 -0.2300000042 1.379999995)
(0 0.2300000042 1.418333292)
(-4.225031443e-17 -0.2300000042 1.418333292)
(0 0.2300000042 1.456666708)
(-4.225031443e-17 -0.2300000042 1.456666708)
(0 0.2300000042 1.495000005)
(-4.225031443e-17 -0.2300000042 1.495000005)
(0 0.2300000042 1.533333302)
(-4.225031443e-17 -0.2300000042 1.533333302)
(0 0.2300000042 1.571666718)
(-4.225031443e-17 -0.2300000042 1.571666718)
(0 0.2300000042 1.610000014)
(-4.225031443e-17 -0.2300000042 1.610000014)
(0 0.2300000042 1.648333311)
(-4.225031443e-17 -0.2300000042 1.648333311)
(0 0.2300000042 1.686666608)
(-4.225031443e-17 -0.2300000042 1.686666608)
(0 0.2300000042 1.725000024)
(-4.225031443e-17 -0.2300000042 1.725000024)
(0 0.2300000042 1.763333321)
(-4.225031443e-17 -0.2300000042 1.763333321)
(0 0.2300000042 1.801666617)
(-4.225031443e-17 -0.2300000042 1.801666617)
(0 0.2300000042 1.840000033)
(-4.225031443e-17 -0.2300000042 1.840000033)
(0 0.2300000042 1.87833333)
(-4.225031443e-17 -0.2300000042 1.87833333)
(0 0.2300000042 1.916666627)
(-4.225031443e-17 -0.2300000042 1.916666627)
(0 0.2300000042 1.955000043)
(-4.225031443e-17 -0.2300000042 1.955000043)
(0 0.2300000042 1.99333334)
(-4.225031443e-17 -0.2300000042 1.99333334)
(0 0.2300000042 2.031666756)
(-4.225031443e-17 -0.2300000042 2.031666756)
(-4.225031443e-17 -0.2300000042 2.069999933)
(-4.225031443e-17 -0.2300000042 2.108333349)
(-4.225031443e-17 -0.2300000042 2.146666765)
(-4.225031443e-17 -0.2300000042 2.184999943)
(-4.225031443e-17 -0.2300000042 2.223333359)
(-4.225031443e-17 -0.2300000042 2.261666775)
(-4.225031443e-17 -0.2300000042 2.299999952)
(-4.225031443e-17 -0.2300000042 2.338333368)
(-4.225031443e-17 -0.2300000042 2.376666784)
(-4.225031443e-17 -0.2300000042 2.414999962)
(-4.225031443e-17 -0.2300000042 2.453333378)
(-4.225031443e-17 -0.2300000042 2.491666555)
(-4.225031443e-17 -0.2300000042 2.529999971)
(-4.225031443e-17 -0.2300000042 2.568333387)
(0 0.2300000042 2.606666565)
(1.408343814e-17 0.2300000042 2.568333387)
(-4.225031443e-17 -0.2300000042 2.606666565)
(0 0.2300000042 2.644999981)
(-4.225031443e-17 -0.2300000042 2.644999981)
(0 0.2300000042 2.683333397)
(-4.225031443e-17 -0.2300000042 2.683333397)
(0 0.2300000042 2.721666574)
(-4.225031443e-17 -0.2300000042 2.721666574)
(0 0.2300000042 2.75999999)
(-4.225031443e-17 -0.2300000042 2.75999999)
(0 0.2300000042 2.798333406)
(-4.225031443e-17 -0.2300000042 2.798333406)
(0 0.2300000042 2.836666584)
(-4.225031443e-17 -0.2300000042 2.836666584)
(0 0.2300000042 2.875)
(-4.225031443e-17 -0.2300000042 2.875)
(0 0.2300000042 2.913333416)
(-4.225031443e-17 -0.2300000042 2.913333416)
(0 0.2300000042 2.951666594)
(-4.225031443e-17 -0.2300000042 2.951666594)
(0 0.2300000042 2.99000001)
(-4.225031443e-17 -0.2300000042 2.99000001)
(0 0.2300000042 3.028333426)
(-4.225031443e-17 -0.2300000042 3.028333426)
(0 0.2300000042 3.066666603)
(-4.225031443e-17 -0.2300000042 3.066666603)
(0 0.2300000042 3.105000019)
(-4.225031443e-17 -0.2300000042 3.105000019)
(0 0.2300000042 3.143333435)
(-4.225031443e-17 -0.2300000042 3.143333435)
(0 0.2300000042 3.181666613)
(-4.225031443e-17 -0.2300000042 3.181666613)
(0 0.2300000042 3.220000029)
(-4.225031443e-17 -0.2300000042 3.220000029)
(0 0.2300000042 3.258333445)
(-4.225031443e-17 -0.2300000042 3.258333445)
(0 0.2300000042 3.296666622)
(-4.225031443e-17 -0.2300000042 3.296666622)
(0 0.2300000042 3.335000038)
(-4.225031443e-17 -0.2300000042 3.335000038)
(0 0.2300000042 3.373333216)
(-4.225031443e-17 -0.2300000042 3.373333216)
(0 0.2300000042 3.411666632)
(-4.225031443e-17 -0.2300000042 3.411666632)
(0 0.2300000042 3.450000048)
(-4.225031443e-17 -0.2300000042 3.450000048)
(0 0.2300000042 3.488333225)
(-4.225031443e-17 -0.2300000042 3.488333225)
(0 0.2300000042 3.526666641)
(-4.225031443e-17 -0.2300000042 3.526666641)
(0 0.2300000042 3.565000057)
(-4.225031443e-17 -0.2300000042 3.565000057)
(0 0.2300000042 3.603333235)
(-4.225031443e-17 -0.2300000042 3.603333235)
(0 0.2300000042 3.641666651)
(-4.225031443e-17 -0.2300000042 3.641666651)
(0 0.2300000042 3.680000067)
(-4.225031443e-17 -0.2300000042 3.680000067)
(0 0.2300000042 3.718333244)
(-4.225031443e-17 -0.2300000042 3.718333244)
(0 0.2300000042 3.75666666)
(-4.225031443e-17 -0.2300000042 3.75666666)
(0 0.2300000042 3.795000076)
(-4.225031443e-17 -0.2300000042 3.795000076)
(0 0.2300000042 3.833333254)
(-4.225031443e-17 -0.2300000042 3.833333254)
(0 0.2300000042 3.87166667)
(-4.225031443e-17 -0.2300000042 3.87166667)
(0 0.2300000042 3.910000086)
(-4.225031443e-17 -0.2300000042 3.910000086)
(0 0.2300000042 3.948333263)
(-4.225031443e-17 -0.2300000042 3.948333263)
(0 0.2300000042 3.986666679)
(-4.225031443e-17 -0.2300000042 3.986666679)
(0 0.2300000042 4.025000095)
(-4.225031443e-17 -0.2300000042 4.025000095)
(0 0.2300000042 4.063333511)
(-4.225031443e-17 -0.2300000042 4.063333511)
(0 0.2300000042 4.101666451)
(-4.225031443e-17 -0.2300000042 4.101666451)
(0 0.2300000042 4.139999866)
(-4.225031443e-17 -0.2300000042 4.139999866)
(0 0.2300000042 4.178333282)
(-4.225031443e-17 -0.2300000042 4.178333282)
(0 0.2300000042 4.216666698)
(-4.225031443e-17 -0.2300000042 4.216666698)
(0 0.2300000042 4.255000114)
(-4.225031443e-17 -0.2300000042 4.255000114)
(0 0.2300000042 4.29333353)
(-4.225031443e-17 -0.2300000042 4.29333353)
(0 0.2300000042 4.33166647)
(-4.225031443e-17 -0.2300000042 4.33166647)
(0 0.2300000042 4.369999886)
(-4.225031443e-17 -0.2300000042 4.369999886)
(0 0.2300000042 4.408333302)
(-4.225031443e-17 -0.2300000042 4.408333302)
(0 0.2300000042 4.446666718)
(-4.225031443e-17 -0.2300000042 4.446666718)
(0 0.2300000042 4.485000134)
(-4.225031443e-17 -0.2300000042 4.485000134)
(0 0.2300000042 4.523333549)
(-4.225031443e-17 -0.2300000042 4.523333549)
(0 0.2300000042 4.561666489)
(-4.225031443e-17 -0.2300000042 4.561666489)
(0 0.2300000042 4.599999905)
(-4.225031443e-17 -0.2300000042 4.599999905)
(0 0.2300000042 4.638333321)
(-4.225031443e-17 -0.2300000042 4.638333321)
(0 0.2300000042 4.676666737)
(-4.225031443e-17 -0.2300000042 4.676666737)
(0 0.2300000042 4.715000153)
(-4.225031443e-17 -0.2300000042 4.715000153)
(0 0.2300000042 4.753333569)
(-4.225031443e-17 -0.2300000042 4.753333569)
(0 0.2300000042 4.791666508)
(-4.225031443e-17 -0.2300000042 4.791666508)
(0 0.2300000042 4.829999924)
(-4.225031443e-17 -0.2300000042 4.829999924)
(0 0.2300000042 4.86833334)
(-4.225031443e-17 -0.2300000042 4.86833334)
(0 0.2300000042 4.906666756)
(-4.225031443e-17 -0.2300000042 4.906666756)
(0 0.2300000042 4.945000172)
(-4.225031443e-17 -0.2300000042 4.945000172)
(0 0.2300000042 4.983333111)
(-4.225031443e-17 -0.2300000042 4.983333111)
(0 0.2300000042 5.021666527)
(-4.225031443e-17 -0.2300000042 5.021666527)
(0 0.2300000042 5.059999943)
(-4.225031443e-17 -0.2300000042 5.059999943)
(0 0.2300000042 5.098333359)
(-4.225031443e-17 -0.2300000042 5.098333359)
(0 0.2300000042 5.136666775)
(-4.225031443e-17 -0.2300000042 5.136666775)
(0 0.2300000042 5.175000191)
(-4.225031443e-17 -0.2300000042 5.175000191)
(0 0.2300000042 5.21333313)
(-4.225031443e-17 -0.2300000042 5.21333313)
(0 0.2300000042 5.251666546)
(-4.225031443e-17 -0.2300000042 5.251666546)
(0 0.2300000042 5.289999962)
(-4.225031443e-17 -0.2300000042 5.289999962)
(0 0.2300000042 5.328333378)
(-4.225031443e-17 -0.2300000042 5.328333378)
(0 0.2300000042 5.366666794)
(-4.225031443e-17 -0.2300000042 5.366666794)
(0 0.2300000042 5.40500021)
(-4.225031443e-17 -0.2300000042 5.40500021)
(0 0.2300000042 5.443333149)
(-4.225031443e-17 -0.2300000042 5.443333149)
(0 0.2300000042 5.481666565)
(-4.225031443e-17 -0.2300000042 5.481666565)
(0 0.2300000042 5.519999981)
(-4.225031443e-17 -0.2300000042 5.519999981)
(0 0.2300000042 5.558333397)
(-4.225031443e-17 -0.2300000042 5.558333397)
(0 0.2300000042 5.596666813)
(-4.225031443e-17 -0.2300000042 5.596666813)
(0 0.2300000042 5.635000229)
(-4.225031443e-17 -0.2300000042 5.635000229)
(0 0.2300000042 5.673333168)
(-4.225031443e-17 -0.2300000042 5.673333168)
(0 0.2300000042 5.711666584)
(-4.225031443e-17 -0.2300000042 5.711666584)
(0 0.2300000042 5.75)
(-4.225031443e-17 -0.2300000042 5.75)
(0 0.2300000042 5.788333416)
(-4.225031443e-17 -0.2300000042 5.788333416)
(0 0.2300000042 5.826666832)
(-4.225031443e-17 -0.2300000042 5.826666832)
(0 0.2300000042 5.864999771)
(-4.225031443e-17 -0.2300000042 5.864999771)
(0 0.2300000042 5.903333187)
(-4.225031443e-17 -0.2300000042 5.903333187)
(0 0.2300000042 5.941666603)
(-4.225031443e-17 -0.2300000042 5.941666603)
(0 0.2300000042 5.980000019)
(-4.225031443e-17 -0.2300000042 5.980000019)
(0 0.2300000042 6.018333435)
(-4.225031443e-17 -0.2300000042 6.018333435)
(0 0.2300000042 6.056666851)
(-4.225031443e-17 -0.2300000042 6.056666851)
(0 0.2300000042 6.09499979)
(-4.225031443e-17 -0.2300000042 6.09499979)
(0 0.2300000042 6.133333206)
(-4.225031443e-17 -0.2300000042 6.133333206)
(0 0.2300000042 6.171666622)
(-4.225031443e-17 -0.2300000042 6.171666622)
(0 0.2300000042 6.210000038)
(-4.225031443e-17 -0.2300000042 6.210000038)
(0 0.2300000042 6.248333454)
(-4.225031443e-17 -0.2300000042 6.248333454)
(0 0.2300000042 6.28666687)
(-4.225031443e-17 -0.2300000042 6.28666687)
(0 0.2300000042 6.324999809)
(-4.225031443e-17 -0.2300000042 6.324999809)
(0 0.2300000042 6.363333225)
(-4.225031443e-17 -0.2300000042 6.363333225)
(0 0.2300000042 6.401666641)
(-4.225031443e-17 -0.2300000042 6.401666641)
(0 0.2300000042 6.440000057)
(-4.225031443e-17 -0.2300000042 6.440000057)
(0 0.2300000042 6.478333473)
(-4.225031443e-17 -0.2300000042 6.478333473)
(0 0.2300000042 6.516666889)
(-4.225031443e-17 -0.2300000042 6.516666889)
(0 0.2300000042 6.554999828)
(-4.225031443e-17 -0.2300000042 6.554999828)
(0 0.2300000042 6.593333244)
(-4.225031443e-17 -0.2300000042 6.593333244)
(0 0.2300000042 6.63166666)
(-4.225031443e-17 -0.2300000042 6.63166666)
(0 0.2300000042 6.670000076)
(-4.225031443e-17 -0.2300000042 6.670000076)
(0 0.2300000042 6.708333492)
(-4.225031443e-17 -0.2300000042 6.708333492)
(0 0.2300000042 6.746666431)
(-4.225031443e-17 -0.2300000042 6.746666431)
(0 0.2300000042 6.784999847)
(-4.225031443e-17 -0.2300000042 6.784999847)
(0 0.2300000042 6.823333263)
(-4.225031443e-17 -0.2300000042 6.823333263)
(0 0.2300000042 6.861666679)
(-4.225031443e-17 -0.2300000042 6.861666679)
(0 0.2300000042 6.900000095)
(-4.225031443e-17 -0.2300000042 6.900000095)
(0.02820631303 0.2282638848 2.136820793)
(-1.611941418e-17 0.2300000042 2.124500036)
(0 0.2300000042 2.475500107)
(0 0.2225365937 2.206712246)
(0 0.2453579456 2.448899269)
(-1.611941418e-17 0.2434815615 2.101149321)
(0 0.2607159019 2.422298431)
(-1.611941418e-17 0.256963104 2.077798605)
(0 0.2760738432 2.395697832)
(-1.611941418e-17 0.2704446912 2.054447651)
(0 0.2914317846 2.369096994)
(-1.611941418e-17 0.2839262486 2.031096935)
(0 0.306789726 2.342496157)
(-1.611941418e-17 0.2974078059 2.00774622)
(0 0.3221476972 2.315895557)
(-1.611941418e-17 0.3108893633 1.984395504)
(0 0.3375056386 2.28929472)
(-1.611941418e-17 0.3243709207 1.961044788)
(0 0.35286358 2.26269412)
(-1.611941418e-17 0.337852478 1.937694073)
(0 0.3682215214 2.236093283)
(-1.611941418e-17 0.3513340354 1.914343238)
(0 0.3835794628 2.209492445)
(-1.611941418e-17 0.3648155928 1.890992522)
(0 0.398937434 2.182891846)
(-1.611941418e-17 0.3782971501 1.867641807)
(0 0.4142953753 2.156291008)
(-1.611941418e-17 0.3917787075 1.844291091)
(0 0.4296533167 2.129690409)
(-1.611941418e-17 0.4052602649 1.820940256)
(0 0.4450112581 2.103089571)
(-1.611941418e-17 0.4187418222 1.79758954)
(0 0.4603691995 2.076488733)
(-1.611941418e-17 0.4322233796 1.774238825)
(0 0.4757271707 2.049888134)
(-1.611941418e-17 0.445704937 1.750888109)
(0 0.4910851121 2.023287296)
(-1.611941418e-17 0.4591864944 1.727537394)
(0 0.5064430237 1.996686578)
(-1.611941418e-17 0.4726680517 1.704186559)
(0 0.5218009949 1.970085859)
(-1.611941418e-17 0.4861496091 1.680835843)
(0 0.5371589661 1.943485141)
(-1.611941418e-17 0.4996311665 1.657485127)
(0 0.5525168777 1.916884303)
(-1.611941418e-17 0.5131127238 1.634134412)
(0 0.5678748488 1.890283585)
(-1.611941418e-17 0.5265942812 1.610783577)
(0 0.5832327604 1.863682866)
(-1.611941418e-17 0.5400758386 1.587432861)
(0 0.5985907316 1.837082148)
(-1.611941418e-17 0.5535573959 1.564082146)
(0 0.6139487028 1.810481429)
(-1.611941418e-17 0.5670389533 1.54073143)
(0 0.6293066144 1.783880591)
(-1.611941418e-17 0.5805205107 1.517380595)
(0 0.6446645856 1.757279873)
(-1.611941418e-17 0.594002068 1.49402988)
(0 0.6600224972 1.730679154)
(-1.611941418e-17 0.6074836254 1.470679164)
(0 0.6753804684 1.704078436)
(-1.611941418e-17 0.6209651828 1.447328448)
(0 0.6907384396 1.677477598)
(-1.611941418e-17 0.6344467402 1.423977613)
(0 0.7060963511 1.65087688)
(-1.611941418e-17 0.6479282975 1.400626898)
(0 0.7214543223 1.624276161)
(-1.611941418e-17 0.6614099145 1.377276182)
(0 0.7368122339 1.597675443)
(-1.611941418e-17 0.6748914719 1.353925467)
(0 0.7521702051 1.571074724)
(-1.611941418e-17 0.6883730292 1.330574632)
(0 0.7675281763 1.544473886)
(-1.611941418e-17 0.7018545866 1.307223916)
(0 0.7828860879 1.517873168)
(-1.611941418e-17 0.715336144 1.2838732)
(0 0.7982440591 1.491272449)
(-1.611941418e-17 0.7288177013 1.260522485)
(0 0.8136019707 1.464671731)
(-1.611941418e-17 0.7422992587 1.23717165)
(0 0.8289599419 1.438070893)
(-1.611941418e-17 0.7557808161 1.213820934)
(0 0.8443179131 1.411470175)
(-1.611941418e-17 0.7692623734 1.190470219)
(0 0.8596758246 1.384869456)
(-1.611941418e-17 0.7827439308 1.167119503)
(0 0.8750337958 1.358268738)
(-1.611941418e-17 0.7962254882 1.143768668)
(0 0.8903917074 1.331668019)
(-1.611941418e-17 0.8097070456 1.120417953)
(0 0.9057496786 1.305067182)
(-1.611941418e-17 0.8231886029 1.097067237)
(0 0.9211076498 1.278466463)
(-1.611941418e-17 0.8366701603 1.073716521)
(0 0.9364655614 1.251865745)
(-1.611941418e-17 0.8501517177 1.050365686)
(0 0.9518235326 1.225265026)
(-1.611941418e-17 0.863633275 1.027014971)
(0 0.9671814442 1.198664188)
(-1.611941418e-17 0.8771148324 1.003664255)
(0 0.9825394154 1.17206347)
(-1.611941418e-17 0.8905963898 0.9803134799)
(0 0.9978973866 1.145462751)
(-1.611941418e-17 0.9040779471 0.9569627643)
(0 1.013255358 1.118862033)
(-1.611941418e-17 0.9175595045 0.933611989)
(0 1.02861321 1.092261314)
(-1.611941418e-17 0.9310410619 0.9102612734)
(0 1.043971181 1.065660477)
(-1.611941418e-17 0.9445226192 0.8869104981)
(0 1.059329152 1.039059758)
(-1.611941418e-17 0.9580041766 0.8635597825)
(0 1.074687123 1.01245904)
(-1.611941418e-17 0.971485734 0.8402090073)
(0 1.090045094 0.9858582616)
(-1.611941418e-17 0.9849672914 0.8168582916)
(0 1.105402946 0.9592575431)
(-1.611941418e-17 0.9984488487 0.7935075164)
(0 1.120760918 0.932656765)
(-1.611941418e-17 1.011930466 0.7701568007)
(0 1.136118889 0.9060560465)
(-1.611941418e-17 1.025411963 0.7468060255)
(0 1.15147686 0.879455328)
(-1.611941418e-17 1.03889358 0.7234553099)
(0 1.166834831 0.8528545499)
(-1.611941418e-17 1.052375078 0.7001045346)
(0 1.182192683 0.8262538314)
(-1.611941418e-17 1.065856695 0.676753819)
(0 1.197550654 0.7996530533)
(-1.611941418e-17 1.079338193 0.6534030437)
(0 1.212908626 0.7730523348)
(-1.611941418e-17 1.09281981 0.6300523281)
(0 1.228266597 0.7464515567)
(-1.611941418e-17 1.106301308 0.6067015529)
(0 1.243624568 0.7198508382)
(-1.611941418e-17 1.119782925 0.5833508372)
(0 1.25898242 0.6932500601)
(-1.611941418e-17 1.133264422 0.560000062)
(0 1.274340391 0.6666493416)
(-1.611941418e-17 1.146746039 0.5366493464)
(0 1.289698362 0.6400486231)
(-1.611941418e-17 1.160227537 0.5132985711)
(0 1.305056334 0.613447845)
(-1.611941418e-17 1.173709154 0.4899478555)
(0 1.320414305 0.5868471265)
(-1.611941418e-17 1.187190652 0.46659711)
(0 1.335772157 0.5602463484)
(-1.611941418e-17 1.200672269 0.4432463646)
(0 1.351130128 0.5336456299)
(-1.611941418e-17 1.214153767 0.4198956192)
(0 1.366488099 0.5070448518)
(-1.611941418e-17 1.227635384 0.3965448737)
(0 1.38184607 0.4804441333)
(-1.611941418e-17 1.241116881 0.3731941283)
(0 1.397204041 0.453843385)
(-1.611941418e-17 1.254598498 0.3498433828)
(0 1.412561893 0.4272426367)
(-1.611941418e-17 1.268079996 0.3264926374)
(0 1.427919865 0.4006418884)
(-1.611941418e-17 1.281561613 0.303141892)
(0 1.443277836 0.3740411401)
(-1.611941418e-17 1.295043111 0.2797911465)
(0 1.458635807 0.3474403918)
(-1.611941418e-17 1.308524728 0.2564404011)
(0 1.473993778 0.3208396435)
(-1.611941418e-17 1.322006226 0.2330896556)
(0 0.2284670919 2.476028681)
(0.2300000042 -5.633375257e-17 0)
(0.2295075506 0.01504271943 0)
(0.2280323207 0.03002102487 0)
(0.2255806178 0.04487077519 0)
(0.2221629471 0.05952838063 0)
(0.2177939266 0.07393107563 0)
(0.2124922872 0.08801718801 0)
(0.2062807232 0.1017263979 0)
(0.1991858482 0.1150000021 0)
(0.1912380159 0.1277811527 0)
(0.1824712753 0.1400151253 0)
(0.1729231626 0.1516495347 0)
(0.1626345664 0.1626345664 0)
(0.1516495347 0.1729231626 0)
(0.1400151253 0.1824712753 0)
(0.1277811527 0.1912380159 0)
(0.1150000021 0.1991858482 0)
(0.1017263979 0.2062807232 0)
(0.08801718801 0.2124922872 0)
(0.07393107563 0.2177939266 0)
(0.05952838063 0.2221629471 0)
(0.04487077519 0.2255806178 0)
(0.03002102487 0.2280323207 0)
(0.01504271943 0.2295075506 0)
(0.01504271943 -0.2295075506 0)
(0.03002102487 -0.2280323207 0)
(0.04487077519 -0.2255806178 0)
(0.05952838063 -0.2221629471 0)
(0.07393107563 -0.2177939266 0)
(0.08801718801 -0.2124922872 0)
(0.1017263979 -0.2062807232 0)
(0.1150000021 -0.1991858482 0)
(0.1277811527 -0.1912380159 0)
(0.1400151253 -0.1824712753 0)
(0.1516495347 -0.1729231626 0)
(0.1626345664 -0.1626345664 0)
(0.1729231626 -0.1516495347 0)
(0.1824712753 -0.1400151253 0)
(0.1912380159 -0.1277811527 0)
(0.1991858482 -0.1150000021 0)
(0.2062807232 -0.1017263979 0)
(0.2124922872 -0.08801718801 0)
(0.2177939266 -0.07393107563 0)
(0.2221629471 -0.05952838063 0)
(0.2255806178 -0.04487077519 0)
(0.2280323207 -0.03002102487 0)
(0.2295075506 -0.01504271943 0)
(0.2295075506 0.01504271943 6.900000095)
(0.2300000042 -5.633375257e-17 6.900000095)
(0.2280323207 0.03002102487 6.900000095)
(0.2255806178 0.04487077519 6.900000095)
(0.2221629471 0.05952838063 6.900000095)
(0.2177939266 0.07393107563 6.900000095)
(0.2124922872 0.08801718801 6.900000095)
(0.2062807232 0.1017263979 6.900000095)
(0.1991858482 0.1150000021 6.900000095)
(0.1912380159 0.1277811527 6.900000095)
(0.1824712753 0.1400151253 6.900000095)
(0.1729231626 0.1516495347 6.900000095)
(0.1626345664 0.1626345664 6.900000095)
(0.1516495347 0.1729231626 6.900000095)
(0.1400151253 0.1824712753 6.900000095)
(0.1277811527 0.1912380159 6.900000095)
(0.1150000021 0.1991858482 6.900000095)
(0.1017263979 0.2062807232 6.900000095)
(0.08801718801 0.2124922872 6.900000095)
(0.07393107563 0.2177939266 6.900000095)
(0.05952838063 0.2221629471 6.900000095)
(0.04487077519 0.2255806178 6.900000095)
(0.03002102487 0.2280323207 6.900000095)
(0.01504271943 0.2295075506 6.900000095)
(0.01504271943 -0.2295075506 6.900000095)
(0.03002102487 -0.2280323207 6.900000095)
(0.04487077519 -0.2255806178 6.900000095)
(0.05952838063 -0.2221629471 6.900000095)
(0.07393107563 -0.2177939266 6.900000095)
(0.08801718801 -0.2124922872 6.900000095)
(0.1017263979 -0.2062807232 6.900000095)
(0.1150000021 -0.1991858482 6.900000095)
(0.1277811527 -0.1912380159 6.900000095)
(0.1400151253 -0.1824712753 6.900000095)
(0.1516495347 -0.1729231626 6.900000095)
(0.1626345664 -0.1626345664 6.900000095)
(0.1729231626 -0.1516495347 6.900000095)
(0.1824712753 -0.1400151253 6.900000095)
(0.1912380159 -0.1277811527 6.900000095)
(0.1991858482 -0.1150000021 6.900000095)
(0.2062807232 -0.1017263979 6.900000095)
(0.2124922872 -0.08801718801 6.900000095)
(0.2177939266 -0.07393107563 6.900000095)
(0.2221629471 -0.05952838063 6.900000095)
(0.2255806178 -0.04487077519 6.900000095)
(0.2280323207 -0.03002102487 6.900000095)
(0.2295075506 -0.01504271943 6.900000095)
(0 0.2269494534 2.476048231)
(0 0.2254519761 2.475621223)
(0 0.2239794433 2.474798441)
(0 0.2225365937 2.473619699)
(0 0.2211281359 2.472117901)
(-6.938893904e-18 0.2197587639 2.470318556)
(0 0.2184331417 2.468240499)
(0 0.2171559483 2.465898514)
(-6.938893904e-18 0.2159318775 2.463302612)
(0 0.2147655934 2.460459232)
(6.938893904e-18 0.2136617601 2.457371712)
(0 0.212624982 2.454041004)
(0 0.2116598189 2.450465918)
(0 0.2107706964 2.446643114)
(0 0.2099618763 2.442568064)
(0 0.2092374116 2.438235044)
(0 0.2086010724 2.433637142)
(0 0.2080563307 2.428766966)
(0 0.2076062262 2.423616409)
(0 0.207253322 2.418177366)
(0 0.206999734 2.412441254)
(0 0.2068469673 2.406399727)
(0 0.2067959309 2.400044441)
(0 0.2068469673 2.393366814)
(0 0.206999734 2.386358738)
(0 0.207253322 2.379011631)
(0 0.2076062262 2.371317387)
(0 0.2080563307 2.363267899)
(0 0.2086010724 2.354854107)
(0 0.2092374116 2.34606719)
(0 0.2099618763 2.336897135)
(0 0.2107706964 2.327333689)
(0 0.2116598189 2.317364931)
(0 0.212624982 2.306978464)
(6.938893904e-18 0.2136617601 2.296159506)
(0 0.2147655934 2.284892559)
(-6.938893904e-18 0.2159318775 2.273159027)
(0 0.2171559483 2.260939598)
(0 0.2184331417 2.248211384)
(-6.938893904e-18 0.2197587639 2.234949589)
(0 0.2211281359 2.221126795)
(0 0.2225365937 2.214262486)
(0 0.2225365937 2.221812725)
(0 0.2234916985 2.230495214)
(0 0.2244362682 2.241544724)
(-3.469446952e-18 0.2253724933 2.255987644)
(0 0.2263024598 2.275550127)
(0 0.2272281945 2.303376198)
(0 0.2281517088 2.345852852)
(3.469446952e-18 0.2290749848 2.418246269)
(0.08756212145 1.402970195 0.2798342109)
(0.08775000274 1.398000002 0.2769646645)
(0.08699928969 1.407919168 0.2826914787)
(0.08606390655 1.412825584 0.2855242491)
(0.08475998789 1.417668581 0.2883203328)
(0.08309312165 1.422427416 0.2910678089)
(0.08107043058 1.427081585 0.2937549055)
(0.0787005797 1.43161118 0.2963700593)
(0.07599373162 1.43599689 0.298902154)
(0.07296145707 1.440219879 0.3013403118)
(0.06961675733 1.444262028 0.303674072)
(0.06597394496 1.44810617 0.305893451)
(0.06204862148 1.451735735 0.3079889715)
(0.05785759538 1.455135107 0.3099516332)
(0.05341881514 1.458289862 0.3117730319)
(0.04875128716 1.461186528 0.3134453893)
(0.04387500137 1.46381247 0.3149615228)
(0.03881083429 1.466156721 0.3163149357)
(0.03358047083 1.468209028 0.317499876)
(0.02820631303 1.469960809 0.3185112178)
(0.022711372 1.471404314 0.3193446398)
(0.01711917669 1.472533584 0.3199966252)
(0.01145367324 1.473343611 0.320464313)
(0.005739124492 1.473831058 0.3207457066)
(0.005739124492 1.322168946 0.2331835926)
(0.01145367324 1.322656393 0.2334650159)
(0.01711917669 1.32346642 0.2339327037)
(0.022711372 1.32459569 0.2345846593)
(0.02820631303 1.326039195 0.2354180962)
(0.03358047083 1.327790976 0.236429438)
(0.03881083429 1.329843283 0.2376143634)
(0.04387500137 1.332187533 0.2389677912)
(0.04875128716 1.334813476 0.2404839247)
(0.05341881514 1.337710142 0.2421562821)
(0.05785759538 1.340864897 0.2439776808)
(0.06204862148 1.344264269 0.2459403425)
(0.06597394496 1.347893834 0.248035863)
(0.06961675733 1.351737976 0.2502552569)
(0.07296145707 1.355780125 0.2525890172)
(0.07599373162 1.360003114 0.2550271451)
(0.0787005797 1.364388824 0.2575592399)
(0.08107043058 1.368918419 0.2601744235)
(0.08309312165 1.373572588 0.2628614902)
(0.08475998789 1.378331423 0.2656089664)
(0.08606390655 1.3831743 0.2684050798)
(0.08699928969 1.388080835 0.2712378204)
(0.08756212145 1.393029809 0.2740950882)
(0.005739124492 0.2299283892 2.475248337)
(0.01145367324 0.229714632 2.474492788)
(0.01711917669 0.229362011 2.473232746)
(0.022711372 0.2288759351 2.471467018)
(0.02820631303 0.2282638848 2.46919322)
(0.03358047083 0.2275353819 2.466409683)
(0.03881083429 0.2267018259 2.463113785)
(0.04387500137 0.2257764041 2.459302902)
(0.04875128716 0.2247739136 2.454974651)
(0.05341881514 0.2237105966 2.450127125)
(0.05785759538 0.2226039022 2.444758415)
(0.06204862148 0.2214722782 2.438867807)
(0.06597394496 0.2203348279 2.432455778)
(0.06961675733 0.2192111015 2.425524473)
(0.07296145707 0.2181206644 2.418078184)
(0.07599373162 0.2170828283 2.41012311)
(0.0787005797 0.2161162198 2.401669025)
(0.08107043058 0.2152384371 2.392728806)
(0.08309312165 0.2144656926 2.383318901)
(0.08475998789 0.2138124108 2.373460531)
(0.08606390655 0.2132908851 2.363179445)
(0.08699928969 0.2129110694 2.352506161)
(0.08756212145 0.2126802206 2.341476917)
(0.08775000274 0.2126027644 2.330132961)
(0.08756212145 0.2126802206 2.318520546)
(0.08699928969 0.2129110694 2.306691647)
(0.08606390655 0.2132908851 2.294702768)
(0.08475998789 0.2138124108 2.282614946)
(0.08309312165 0.2144656926 2.270493507)
(0.08107043058 0.2152384371 2.258406878)
(0.0787005797 0.2161162198 2.246425867)
(0.07599373162 0.2170828283 2.234623194)
(0.07296145707 0.2181206644 2.223073006)
(0.06961675733 0.2192111015 2.211849213)
(0.06597394496 0.2203348279 2.201025486)
(0.06204862148 0.2214722782 2.190673113)
(0.05785759538 0.2226039022 2.180862427)
(0.05341881514 0.2237105966 2.171659946)
(0.04875128716 0.2247739136 2.163128853)
(0.04387500137 0.2257764041 2.155328035)
(0.03881083429 0.2267018259 2.148311377)
(0.03358047083 0.2275353819 2.142127991)
(0.022711372 0.2288759351 2.132426977)
(0.01711917669 0.229362011 2.128977299)
(0.01145367324 0.229714632 2.1264956)
(0.005739124492 0.2299283892 2.124999762)
)


// edges:

2055
(
(707 351)
(708 707)
(709 708)
(710 709)
(711 710)
(712 711)
(713 712)
(714 713)
(715 714)
(716 715)
(717 716)
(718 717)
(719 718)
(720 719)
(721 720)
(722 721)
(723 722)
(724 723)
(725 724)
(726 725)
(727 726)
(728 727)
(729 728)
(730 729)
(731 730)
(732 731)
(733 732)
(734 733)
(735 734)
(736 735)
(737 736)
(738 737)
(739 738)
(740 739)
(741 740)
(742 741)
(743 742)
(744 743)
(745 744)
(746 745)
(747 746)
(748 747)
(352 349)
(349 748)
(749 349)
(750 749)
(751 750)
(752 751)
(350 752)
(516 517)
(517 518)
(518 519)
(519 520)
(520 521)
(521 522)
(522 523)
(523 524)
(524 525)
(525 526)
(526 527)
(527 528)
(528 529)
(529 530)
(530 531)
(531 532)
(532 533)
(533 534)
(534 535)
(535 536)
(536 537)
(537 538)
(538 539)
(539 1)
(3 3)
(3 540)
(540 541)
(541 542)
(542 543)
(543 544)
(544 545)
(545 546)
(546 547)
(547 548)
(548 549)
(549 550)
(550 551)
(551 552)
(552 553)
(553 554)
(554 555)
(555 556)
(556 557)
(557 558)
(558 559)
(559 560)
(560 561)
(561 562)
(562 516)
(563 564)
(565 563)
(566 565)
(567 566)
(568 567)
(569 568)
(570 569)
(571 570)
(572 571)
(573 572)
(574 573)
(575 574)
(576 575)
(577 576)
(578 577)
(579 578)
(580 579)
(581 580)
(582 581)
(583 582)
(584 583)
(585 584)
(586 585)
(347 586)
(347 347)
(587 348)
(588 587)
(589 588)
(590 589)
(591 590)
(592 591)
(593 592)
(594 593)
(595 594)