/*--------------------------------*- C++ -*----------------------------------*\
| =========                 |                                                 |
| \\      /  F ield         | OpenFOAM: The Open Source CFD Toolbox           |
|  \\    /   O peration     | Version:  2406                                  |
|   \\  /    A nd           | Website:  www.openfoam.com                      |
|    \\/     M anipulation  |                                                 |
\*---------------------------------------------------------------------------*/
FoamFile
{
    version     2.0;
    format      ascii;
    arch        "LSB;label=32;scalar=64";
    class       featureEdgeMesh;
    location    "constant/triSurface";
    object      branch_inlet.eMesh;
}
// * * * * * * * * * * * * * * * * * * * * * * * * * * * * * * * * * * * * * //


// points:

50
(
(0 1.162860036 0.6842390895)
(0 1.221884012 0.718316555)
(-1.251987074e-17 1.10383606 0.6501615644)
(0.0680090785 1.16672039 0.686467886)
(0.06815499812 1.162860036 0.6842390895)
(0.06757192314 1.170564175 0.6886870861)
(0.06684542447 1.174375057 0.6908872724)
(0.0658326745 1.178136468 0.6930589676)
(0.06453802437 1.181832671 0.6951929331)
(0.06296700984 1.185447454 0.6972799897)
(0.06112636253 1.188965678 0.6993111968)
(0.05902396142 1.192371964 0.7012778521)
(0.05666881055 1.195652008 0.7031715512)
(0.05407099798 1.198791504 0.7049841285)
(0.05124164373 1.20177722 0.7067079544)
(0.04819286242 1.204596281 0.7083355188)
(0.04493771493 1.207236528 0.7098599076)
(0.04149013385 1.209686875 0.7112745643)
(0.03786488995 1.211936593 0.7125734687)
(0.03407749906 1.213976264 0.7137510777)
(0.03014418483 1.215796947 0.7148022652)
(0.02608178928 1.217391014 0.7157225609)
(0.02190770768 1.21875155 0.7165080905)
(0.01763981208 1.219872713 0.7171553969)
(0.01329638064 1.220749855 0.717661798)
(0.008896012791 1.221379042 0.7180250287)
(0.004457550123 1.221757531 0.7182435989)
(0.004457550123 1.103962421 0.6502345204)
(0.008896012791 1.10434103 0.6504531503)
(0.01329638064 1.104970217 0.650816381)
(0.01763981208 1.105847239 0.6513227224)
(0.02190770768 1.106968403 0.6519700885)
(0.02608178928 1.108328938 0.6527555585)
(0.03014418483 1.109923005 0.6536759138)
(0.03407749906 1.111743808 0.6547271013)
(0.03786488995 1.11378336 0.6559046507)
(0.04149013385 1.116033196 0.6572036147)
(0.04493771493 1.118483424 0.6586182714)
(0.04819286242 1.121123791 0.6601426601)
(0.05124164373 1.123942852 0.6617702246)
(0.05407099798 1.126928449 0.6634939909)
(0.05666881055 1.130068064 0.6653066278)
(0.05902396142 1.133347988 0.6672003269)
(0.06112636253 1.136754394 0.6691669822)
(0.06296700984 1.140272498 0.6711981893)
(0.06453802437 1.143887401 0.6732852459)
(0.0658326745 1.147583485 0.6754191518)
(0.06684542447 1.151345015 0.6775909066)
(0.06757192314 1.155155778 0.6797910929)
(0.0680090785 1.158999681 0.682010293)
)


// edges:

54
(
(3 4)
(5 3)
(6 5)
(7 6)
(8 7)
(9 8)
(10 9)
(11 10)
(12 11)
(13 12)
(14 13)
(15 14)
(16 15)
(17 16)
(18 17)
(19 18)
(20 19)
(21 20)
(22 21)
(23 22)
(24 23)
(25 24)
(26 25)
(1 26)
(1 1)
(2 2)
(27 2)
(28 27)
(29 28)
(30 29)
(31 30)
(32 31)
(33 32)
(34 33)
(35 34)
(36 35)
(37 36)
(38 37)
(39 38)
(40 39)
(41 40)
(42 41)
(43 42)
(44 43)
(45 44)
(46 45)
(47 46)
(48 47)
(49 48)
(4 49)
(0 1)
(0 0)
(0 2)
(2 0)
)

// * * * * * * * * * * * * * * * * * * * * * * * * * * * * * * * * * * * * * //


// ************************************************************************* //
