/*--------------------------------*- C++ -*----------------------------------*\
| =========                 |                                                 |
| \\      /  F ield         | OpenFOAM: The Open Source CFD Toolbox           |
|  \\    /   O peration     | Version:  2406                                  |
|   \\  /    A nd           | Website:  www.openfoam.com                      |
|    \\/     M anipulation  |                                                 |
\*---------------------------------------------------------------------------*/
FoamFile
{
    version     2.0;
    format      ascii;
    arch        "LSB;label=32;scalar=64";
    class       featureEdgeMesh;
    location    "constant/triSurface";
    object      wall.eMesh;
}
// * * * * * * * * * * * * * * * * * * * * * * * * * * * * * * * * * * * * * //


// points:

705
(
(0 0.2300000042 0.03833333403)
(0 0.2300000042 3.588879921e-17)
(-4.225031443e-17 -0.2300000042 0.03833333403)
(-4.225031443e-17 -0.2300000042 0)
(0 0.2300000042 0.07666666806)
(-4.225031443e-17 -0.2300000042 0.07666666806)
(0 0.2300000042 0.1150000021)
(-4.225031443e-17 -0.2300000042 0.1150000021)
(0 0.2300000042 0.1533333361)
(-4.225031443e-17 -0.2300000042 0.1533333361)
(0 0.2300000042 0.1916666627)
(-4.225031443e-17 -0.2300000042 0.1916666627)
(0 0.2300000042 0.2300000042)
(-4.225031443e-17 -0.2300000042 0.2300000042)
(0 0.2300000042 0.2683333457)
(-4.225031443e-17 -0.2300000042 0.2683333457)
(0 0.2300000042 0.3066666722)
(-4.225031443e-17 -0.2300000042 0.3066666722)
(0 0.2300000042 0.3449999988)
(-4.225031443e-17 -0.2300000042 0.3449999988)
(0 0.2300000042 0.3833333254)
(-4.225031443e-17 -0.2300000042 0.3833333254)
(0 0.2300000042 0.421666652)
(-4.225031443e-17 -0.2300000042 0.421666652)
(0 0.2300000042 0.4600000083)
(-4.225031443e-17 -0.2300000042 0.4600000083)
(0 0.2300000042 0.4983333349)
(-4.225031443e-17 -0.2300000042 0.4983333349)
(0 0.2300000042 0.5366666913)
(-4.225031443e-17 -0.2300000042 0.5366666913)
(0 0.2300000042 0.5749999881)
(-4.225031443e-17 -0.2300000042 0.5749999881)
(0 0.2300000042 0.6133333445)
(-4.225031443e-17 -0.2300000042 0.6133333445)
(0 0.2300000042 0.6516666412)
(-4.225031443e-17 -0.2300000042 0.6516666412)
(0 0.2300000042 0.6899999976)
(-4.225031443e-17 -0.2300000042 0.6899999976)
(0 0.2300000042 0.728333354)
(-4.225031443e-17 -0.2300000042 0.728333354)
(0 0.2300000042 0.7666666508)
(-4.225031443e-17 -0.2300000042 0.7666666508)
(0 0.2300000042 0.8050000072)
(-4.225031443e-17 -0.2300000042 0.8050000072)
(0 0.2300000042 0.8433333039)
(-4.225031443e-17 -0.2300000042 0.8433333039)
(0 0.2300000042 0.8816666603)
(-4.225031443e-17 -0.2300000042 0.8816666603)
(0 0.2300000042 0.9200000167)
(-4.225031443e-17 -0.2300000042 0.9200000167)
(0 0.2300000042 0.9583333135)
(-4.225031443e-17 -0.2300000042 0.9583333135)
(0 0.2300000042 0.9966666698)
(-4.225031443e-17 -0.2300000042 0.9966666698)
(0 0.2300000042 1.034999967)
(-4.225031443e-17 -0.2300000042 1.034999967)
(0 0.2300000042 1.073333383)
(-4.225031443e-17 -0.2300000042 1.073333383)
(0 0.2300000042 1.111666679)
(-4.225031443e-17 -0.2300000042 1.111666679)
(0 0.2300000042 1.149999976)
(-4.225031443e-17 -0.2300000042 1.149999976)
(0 0.2300000042 1.188333392)
(-4.225031443e-17 -0.2300000042 1.188333392)
(0 0.2300000042 1.226666689)
(-4.225031443e-17 -0.2300000042 1.226666689)
(0 0.2300000042 1.264999986)
(-4.225031443e-17 -0.2300000042 1.264999986)
(0 0.2300000042 1.303333282)
(-4.225031443e-17 -0.2300000042 1.303333282)
(0 0.2300000042 1.341666698)
(-4.225031443e-17 -0.2300000042 1.341666698)
(0 0.2300000042 1.379999995)
(-4.225031443e-17 -0.2300000042 1.379999995)
(0 0.2300000042 1.418333292)
(-4.225031443e-17 -0.2300000042 1.418333292)
(0 0.2300000042 1.456666708)
(-4.225031443e-17 -0.2300000042 1.456666708)
(0 0.2300000042 1.495000005)
(-4.225031443e-17 -0.2300000042 1.495000005)
(0 0.2300000042 1.533333302)
(-4.225031443e-17 -0.2300000042 1.533333302)
(0 0.2300000042 1.571666718)
(-4.225031443e-17 -0.2300000042 1.571666718)
(0 0.2300000042 1.610000014)
(-4.225031443e-17 -0.2300000042 1.610000014)
(0 0.2300000042 1.648333311)
(-4.225031443e-17 -0.2300000042 1.648333311)
(0 0.2300000042 1.686666608)
(-4.225031443e-17 -0.2300000042 1.686666608)
(0 0.2300000042 1.725000024)
(-4.225031443e-17 -0.2300000042 1.725000024)
(0 0.2300000042 1.763333321)
(-4.225031443e-17 -0.2300000042 1.763333321)
(0 0.2300000042 1.801666617)
(-4.225031443e-17 -0.2300000042 1.801666617)
(0 0.2300000042 1.840000033)
(-4.225031443e-17 -0.2300000042 1.840000033)
(0 0.2300000042 1.87833333)
(-4.225031443e-17 -0.2300000042 1.87833333)
(0 0.2300000042 1.916666627)
(-4.225031443e-17 -0.2300000042 1.916666627)
(0 0.2300000042 1.955000043)
(-4.225031443e-17 -0.2300000042 1.955000043)
(0 0.2300000042 1.99333334)
(-4.225031443e-17 -0.2300000042 1.99333334)
(0 0.2300000042 2.031666756)
(-4.225031443e-17 -0.2300000042 2.031666756)
(0 0.2300000042 2.069999933)
(-4.225031443e-17 -0.2300000042 2.069999933)
(-4.225031443e-17 -0.2300000042 2.108333349)
(-4.225031443e-17 -0.2300000042 2.146666765)
(-4.225031443e-17 -0.2300000042 2.184999943)
(-4.225031443e-17 -0.2300000042 2.223333359)
(-4.225031443e-17 -0.2300000042 2.261666775)
(-4.225031443e-17 -0.2300000042 2.299999952)
(-4.225031443e-17 -0.2300000042 2.338333368)
(-4.225031443e-17 -0.2300000042 2.376666784)
(-4.225031443e-17 -0.2300000042 2.414999962)
(-4.225031443e-17 -0.2300000042 2.453333378)
(-4.225031443e-17 -0.2300000042 2.491666555)
(-4.225031443e-17 -0.2300000042 2.529999971)
(0 0.2300000042 2.568333387)
(1.408343814e-17 0.2300000042 2.529999971)
(-4.225031443e-17 -0.2300000042 2.568333387)
(0 0.2300000042 2.606666565)
(-4.225031443e-17 -0.2300000042 2.606666565)
(0 0.2300000042 2.644999981)
(-4.225031443e-17 -0.2300000042 2.644999981)
(0 0.2300000042 2.683333397)
(-4.225031443e-17 -0.2300000042 2.683333397)
(0 0.2300000042 2.721666574)
(-4.225031443e-17 -0.2300000042 2.721666574)
(0 0.2300000042 2.75999999)
(-4.225031443e-17 -0.2300000042 2.75999999)
(0 0.2300000042 2.798333406)
(-4.225031443e-17 -0.2300000042 2.798333406)
(0 0.2300000042 2.836666584)
(-4.225031443e-17 -0.2300000042 2.836666584)
(0 0.2300000042 2.875)
(-4.225031443e-17 -0.2300000042 2.875)
(0 0.2300000042 2.913333416)
(-4.225031443e-17 -0.2300000042 2.913333416)
(0 0.2300000042 2.951666594)
(-4.225031443e-17 -0.2300000042 2.951666594)
(0 0.2300000042 2.99000001)
(-4.225031443e-17 -0.2300000042 2.99000001)
(0 0.2300000042 3.028333426)
(-4.225031443e-17 -0.2300000042 3.028333426)
(0 0.2300000042 3.066666603)
(-4.225031443e-17 -0.2300000042 3.066666603)
(0 0.2300000042 3.105000019)
(-4.225031443e-17 -0.2300000042 3.105000019)
(0 0.2300000042 3.143333435)
(-4.225031443e-17 -0.2300000042 3.143333435)
(0 0.2300000042 3.181666613)
(-4.225031443e-17 -0.2300000042 3.181666613)
(0 0.2300000042 3.220000029)
(-4.225031443e-17 -0.2300000042 3.220000029)
(0 0.2300000042 3.258333445)
(-4.225031443e-17 -0.2300000042 3.258333445)
(0 0.2300000042 3.296666622)
(-4.225031443e-17 -0.2300000042 3.296666622)
(0 0.2300000042 3.335000038)
(-4.225031443e-17 -0.2300000042 3.335000038)
(0 0.2300000042 3.373333216)
(-4.225031443e-17 -0.2300000042 3.373333216)
(0 0.2300000042 3.411666632)
(-4.225031443e-17 -0.2300000042 3.411666632)
(0 0.2300000042 3.450000048)
(-4.225031443e-17 -0.2300000042 3.450000048)
(0 0.2300000042 3.488333225)
(-4.225031443e-17 -0.2300000042 3.488333225)
(0 0.2300000042 3.526666641)
(-4.225031443e-17 -0.2300000042 3.526666641)
(0 0.2300000042 3.565000057)
(-4.225031443e-17 -0.2300000042 3.565000057)
(0 0.2300000042 3.603333235)
(-4.225031443e-17 -0.2300000042 3.603333235)
(0 0.2300000042 3.641666651)
(-4.225031443e-17 -0.2300000042 3.641666651)
(0 0.2300000042 3.680000067)
(-4.225031443e-17 -0.2300000042 3.680000067)
(0 0.2300000042 3.718333244)
(-4.225031443e-17 -0.2300000042 3.718333244)
(0 0.2300000042 3.75666666)
(-4.225031443e-17 -0.2300000042 3.75666666)
(0 0.2300000042 3.795000076)
(-4.225031443e-17 -0.2300000042 3.795000076)
(0 0.2300000042 3.833333254)
(-4.225031443e-17 -0.2300000042 3.833333254)
(0 0.2300000042 3.87166667)
(-4.225031443e-17 -0.2300000042 3.87166667)
(0 0.2300000042 3.910000086)
(-4.225031443e-17 -0.2300000042 3.910000086)
(0 0.2300000042 3.948333263)
(-4.225031443e-17 -0.2300000042 3.948333263)
(0 0.2300000042 3.986666679)
(-4.225031443e-17 -0.2300000042 3.986666679)
(0 0.2300000042 4.025000095)
(-4.225031443e-17 -0.2300000042 4.025000095)
(0 0.2300000042 4.063333511)
(-4.225031443e-17 -0.2300000042 4.063333511)
(0 0.2300000042 4.101666451)
(-4.225031443e-17 -0.2300000042 4.101666451)
(0 0.2300000042 4.139999866)
(-4.225031443e-17 -0.2300000042 4.139999866)
(0 0.2300000042 4.178333282)
(-4.225031443e-17 -0.2300000042 4.178333282)
(0 0.2300000042 4.216666698)
(-4.225031443e-17 -0.2300000042 4.216666698)
(0 0.2300000042 4.255000114)
(-4.225031443e-17 -0.2300000042 4.255000114)
(0 0.2300000042 4.29333353)
(-4.225031443e-17 -0.2300000042 4.29333353)
(0 0.2300000042 4.33166647)
(-4.225031443e-17 -0.2300000042 4.33166647)
(0 0.2300000042 4.369999886)
(-4.225031443e-17 -0.2300000042 4.369999886)
(0 0.2300000042 4.408333302)
(-4.225031443e-17 -0.2300000042 4.408333302)
(0 0.2300000042 4.446666718)
(-4.225031443e-17 -0.2300000042 4.446666718)
(0 0.2300000042 4.485000134)
(-4.225031443e-17 -0.2300000042 4.485000134)
(0 0.2300000042 4.523333549)
(-4.225031443e-17 -0.2300000042 4.523333549)
(0 0.2300000042 4.561666489)
(-4.225031443e-17 -0.2300000042 4.561666489)
(0 0.2300000042 4.599999905)
(-4.225031443e-17 -0.2300000042 4.599999905)
(0 0.2300000042 4.638333321)
(-4.225031443e-17 -0.2300000042 4.638333321)
(0 0.2300000042 4.676666737)
(-4.225031443e-17 -0.2300000042 4.676666737)
(0 0.2300000042 4.715000153)
(-4.225031443e-17 -0.2300000042 4.715000153)
(0 0.2300000042 4.753333569)
(-4.225031443e-17 -0.2300000042 4.753333569)
(0 0.2300000042 4.791666508)
(-4.225031443e-17 -0.2300000042 4.791666508)
(0 0.2300000042 4.829999924)
(-4.225031443e-17 -0.2300000042 4.829999924)
(0 0.2300000042 4.86833334)
(-4.225031443e-17 -0.2300000042 4.86833334)
(0 0.2300000042 4.906666756)
(-4.225031443e-17 -0.2300000042 4.906666756)
(0 0.2300000042 4.945000172)
(-4.225031443e-17 -0.2300000042 4.945000172)
(0 0.2300000042 4.983333111)
(-4.225031443e-17 -0.2300000042 4.983333111)
(0 0.2300000042 5.021666527)
(-4.225031443e-17 -0.2300000042 5.021666527)
(0 0.2300000042 5.059999943)
(-4.225031443e-17 -0.2300000042 5.059999943)
(0 0.2300000042 5.098333359)
(-4.225031443e-17 -0.2300000042 5.098333359)
(0 0.2300000042 5.136666775)
(-4.225031443e-17 -0.2300000042 5.136666775)
(0 0.2300000042 5.175000191)
(-4.225031443e-17 -0.2300000042 5.175000191)
(0 0.2300000042 5.21333313)
(-4.225031443e-17 -0.2300000042 5.21333313)
(0 0.2300000042 5.251666546)
(-4.225031443e-17 -0.2300000042 5.251666546)
(0 0.2300000042 5.289999962)
(-4.225031443e-17 -0.2300000042 5.289999962)
(0 0.2300000042 5.328333378)
(-4.225031443e-17 -0.2300000042 5.328333378)
(0 0.2300000042 5.366666794)
(-4.225031443e-17 -0.2300000042 5.366666794)
(0 0.2300000042 5.40500021)
(-4.225031443e-17 -0.2300000042 5.40500021)
(0 0.2300000042 5.443333149)
(-4.225031443e-17 -0.2300000042 5.443333149)
(0 0.2300000042 5.481666565)
(-4.225031443e-17 -0.2300000042 5.481666565)
(0 0.2300000042 5.519999981)
(-4.225031443e-17 -0.2300000042 5.519999981)
(0 0.2300000042 5.558333397)
(-4.225031443e-17 -0.2300000042 5.558333397)
(0 0.2300000042 5.596666813)
(-4.225031443e-17 -0.2300000042 5.596666813)
(0 0.2300000042 5.635000229)
(-4.225031443e-17 -0.2300000042 5.635000229)
(0 0.2300000042 5.673333168)
(-4.225031443e-17 -0.2300000042 5.673333168)
(0 0.2300000042 5.711666584)
(-4.225031443e-17 -0.2300000042 5.711666584)
(0 0.2300000042 5.75)
(-4.225031443e-17 -0.2300000042 5.75)
(0 0.2300000042 5.788333416)
(-4.225031443e-17 -0.2300000042 5.788333416)
(0 0.2300000042 5.826666832)
(-4.225031443e-17 -0.2300000042 5.826666832)
(0 0.2300000042 5.864999771)
(-4.225031443e-17 -0.2300000042 5.864999771)
(0 0.2300000042 5.903333187)
(-4.225031443e-17 -0.2300000042 5.903333187)
(0 0.2300000042 5.941666603)
(-4.225031443e-17 -0.2300000042 5.941666603)
(0 0.2300000042 5.980000019)
(-4.225031443e-17 -0.2300000042 5.980000019)
(0 0.2300000042 6.018333435)
(-4.225031443e-17 -0.2300000042 6.018333435)
(0 0.2300000042 6.056666851)
(-4.225031443e-17 -0.2300000042 6.056666851)
(0 0.2300000042 6.09499979)
(-4.225031443e-17 -0.2300000042 6.09499979)
(0 0.2300000042 6.133333206)
(-4.225031443e-17 -0.2300000042 6.133333206)
(0 0.2300000042 6.171666622)
(-4.225031443e-17 -0.2300000042 6.171666622)
(0 0.2300000042 6.210000038)
(-4.225031443e-17 -0.2300000042 6.210000038)
(0 0.2300000042 6.248333454)
(-4.225031443e-17 -0.2300000042 6.248333454)
(0 0.2300000042 6.28666687)
(-4.225031443e-17 -0.2300000042 6.28666687)
(0 0.2300000042 6.324999809)
(-4.225031443e-17 -0.2300000042 6.324999809)
(0 0.2300000042 6.363333225)
(-4.225031443e-17 -0.2300000042 6.363333225)
(0 0.2300000042 6.401666641)
(-4.225031443e-17 -0.2300000042 6.401666641)
(0 0.2300000042 6.440000057)
(-4.225031443e-17 -0.2300000042 6.440000057)
(0 0.2300000042 6.478333473)
(-4.225031443e-17 -0.2300000042 6.478333473)
(0 0.2300000042 6.516666889)
(-4.225031443e-17 -0.2300000042 6.516666889)
(0 0.2300000042 6.554999828)
(-4.225031443e-17 -0.2300000042 6.554999828)
(0 0.2300000042 6.593333244)
(-4.225031443e-17 -0.2300000042 6.593333244)
(0 0.2300000042 6.63166666)
(-4.225031443e-17 -0.2300000042 6.63166666)
(0 0.2300000042 6.670000076)
(-4.225031443e-17 -0.2300000042 6.670000076)
(0 0.2300000042 6.708333492)
(-4.225031443e-17 -0.2300000042 6.708333492)
(0 0.2300000042 6.746666431)
(-4.225031443e-17 -0.2300000042 6.746666431)
(0 0.2300000042 6.784999847)
(-4.225031443e-17 -0.2300000042 6.784999847)
(0 0.2300000042 6.823333263)
(-4.225031443e-17 -0.2300000042 6.823333263)
(0 0.2300000042 6.861666679)
(-4.225031443e-17 -0.2300000042 6.861666679)
(0 0.2300000042 6.900000095)
(-4.225031443e-17 -0.2300000042 6.900000095)
(0.01499209274 0.2295108587 2.188944817)
(-1.064064957e-17 0.2300000042 2.184149981)
(0 0.2300000042 2.415849924)
(0 0.2270339578 2.22184515)
(0 0.2453618646 2.389242411)
(-1.064064957e-17 0.2435702831 2.160645485)
(0 0.2607237399 2.362634897)
(-1.064064957e-17 0.257140547 2.137141228)
(0 0.2760855854 2.336027384)
(-1.064064957e-17 0.2707108259 2.113636732)
(0 0.2914474607 2.30941987)
(-1.064064957e-17 0.2842811048 2.090132475)
(0 0.3068093359 2.282812357)
(-1.064064957e-17 0.2978513837 2.066627979)
(0 0.3221712112 2.256204844)
(-1.064064957e-17 0.3114216626 2.043123484)
(0 0.3375330567 2.22959733)
(-1.064064957e-17 0.3249919415 2.019619226)
(0 0.352894932 2.202989817)
(-1.064064957e-17 0.3385622203 1.996114731)
(0 0.3682568073 2.176382303)
(-1.064064957e-17 0.3521324992 1.972610354)
(0 0.3836186528 2.149774551)
(-1.064064957e-17 0.3657027781 1.949105859)
(0 0.3989805281 2.123167038)
(-1.064064957e-17 0.3792730272 1.925601482)
(0 0.4143424034 2.096559525)
(-1.064064957e-17 0.3928433061 1.902097106)
(0 0.4297042787 2.069952011)
(-1.064064957e-17 0.4064135849 1.87859273)
(0 0.4450661242 2.043344498)
(-1.064064957e-17 0.4199838638 1.855088234)
(0 0.4604279995 2.016736984)
(-1.064064957e-17 0.4335541427 1.831583858)
(0 0.4757898748 1.990129471)
(-1.064064957e-17 0.4471244216 1.808079481)
(0 0.4911517203 1.963521957)
(-1.064064957e-17 0.4606947005 1.784575105)
(0 0.5065135956 1.936914444)
(-1.064064957e-17 0.4742649794 1.761070609)
(0 0.5218754411 1.910306811)
(-1.064064957e-17 0.4878352582 1.737566233)
(0 0.5372373462 1.883699298)
(-1.064064957e-17 0.5014055371 1.714061856)
(0 0.5525991917 1.857091784)
(-1.064064957e-17 0.5149757862 1.69055748)
(0 0.5679610372 1.830484271)
(-1.064064957e-17 0.5285460949 1.667052984)
(0 0.5833229423 1.803876758)
(-1.064064957e-17 0.542116344 1.643548608)
(0 0.5986847878 1.777269244)
(-1.064064957e-17 0.5556866527 1.620044231)
(0 0.6140466332 1.750661612)
(-1.064064957e-17 0.5692569017 1.596539736)
(0 0.6294085383 1.724054098)
(-1.064064957e-17 0.5828272104 1.573035359)
(0 0.6447703838 1.697446585)
(-1.064064957e-17 0.5963974595 1.549530983)
(0 0.6601322889 1.670839071)
(-1.064064957e-17 0.6099677682 1.526026607)
(0 0.6754941344 1.644231558)
(-1.064064957e-17 0.6235380173 1.502522111)
(0 0.6908559799 1.617624044)
(-1.064064957e-17 0.6371082664 1.479017735)
(0 0.706217885 1.591016412)
(-1.064064957e-17 0.650678575 1.455513358)
(0 0.7215797305 1.564408898)
(-1.064064957e-17 0.6642488241 1.432008982)
(0 0.736941576 1.537801385)
(-1.064064957e-17 0.6778191328 1.408504486)
(0 0.7523034811 1.511193871)
(-1.064064957e-17 0.6913893819 1.38500011)
(0 0.7676653266 1.484586358)
(-1.064064957e-17 0.7049596906 1.361495733)
(0 0.7830271721 1.457978845)
(-1.064064957e-17 0.7185299397 1.337991357)
(0 0.7983890772 1.431371212)
(-1.064064957e-17 0.7321002483 1.314486861)
(0 0.8137509227 1.404763699)
(-1.064064957e-17 0.7456704974 1.290982485)
(0 0.8291127682 1.378156185)
(-1.064064957e-17 0.7592408061 1.267478108)
(0 0.8444746733 1.351548672)
(-1.064064957e-17 0.7728110552 1.243973613)
(0 0.8598365188 1.324941158)
(-1.064064957e-17 0.7863813043 1.220469236)
(0 0.8751983643 1.298333645)
(-1.064064957e-17 0.7999516129 1.19696486)
(0 0.8905602694 1.271726131)
(-1.064064957e-17 0.813521862 1.173460484)
(0 0.9059221148 1.245118499)
(-1.064064957e-17 0.8270921707 1.149955988)
(0 0.9212840199 1.218510985)
(-1.064064957e-17 0.8406624198 1.126451612)
(0 0.9366458654 1.191903472)
(-1.064064957e-17 0.8542327285 1.102947235)
(0 0.9520077109 1.165295959)
(-1.064064957e-17 0.8678029776 1.079442859)
(0 0.967369616 1.138688445)
(-1.064064957e-17 0.8813732862 1.055938363)
(0 0.9827314615 1.112080932)
(-1.064064957e-17 0.8949435353 1.032433987)
(0 0.998093307 1.085473299)
(-1.064064957e-17 0.908513844 1.00892961)
(0 1.013455153 1.058865786)
(-1.064064957e-17 0.9220840931 0.9854251742)
(0 1.028817058 1.032258272)
(-1.064064957e-17 0.9356544018 0.9619207978)
(0 1.044178963 1.005650759)
(-1.064064957e-17 0.9492246509 0.9384163618)
(0 1.059540749 0.9790431857)
(-1.064064957e-17 0.9627948999 0.9149119854)
(0 1.074902654 0.9524356723)
(-1.064064957e-17 0.9763652086 0.8914075494)
(0 1.090264559 0.9258281589)
(-1.064064957e-17 0.9899354577 0.8679031134)
(0 0.2292476147 2.41562891)
(0.2300000042 -5.633375257e-17 0)
(0.2295075506 0.01504271943 0)
(0.2280323207 0.03002102487 0)
(0.2255806178 0.04487077519 0)
(0.2221629471 0.05952838063 0)
(0.2177939266 0.07393107563 0)
(0.2124922872 0.08801718801 0)
(0.2062807232 0.1017263979 0)
(0.1991858482 0.1150000021 0)
(0.1912380159 0.1277811527 0)
(0.1824712753 0.1400151253 0)
(0.1729231626 0.1516495347 0)
(0.1626345664 0.1626345664 0)
(0.1516495347 0.1729231626 0)
(0.1400151253 0.1824712753 0)
(0.1277811527 0.1912380159 0)
(0.1150000021 0.1991858482 0)
(0.1017263979 0.2062807232 0)
(0.08801718801 0.2124922872 0)
(0.07393107563 0.2177939266 0)
(0.05952838063 0.2221629471 0)
(0.04487077519 0.2255806178 0)
(0.03002102487 0.2280323207 0)
(0.01504271943 0.2295075506 0)
(0.01504271943 -0.2295075506 0)
(0.03002102487 -0.2280323207 0)
(0.04487077519 -0.2255806178 0)
(0.05952838063 -0.2221629471 0)
(0.07393107563 -0.2177939266 0)
(0.08801718801 -0.2124922872 0)
(0.1017263979 -0.2062807232 0)
(0.1150000021 -0.1991858482 0)
(0.1277811527 -0.1912380159 0)
(0.1400151253 -0.1824712753 0)
(0.1516495347 -0.1729231626 0)
(0.1626345664 -0.1626345664 0)
(0.1729231626 -0.1516495347 0)
(0.1824712753 -0.1400151253 0)
(0.1912380159 -0.1277811527 0)
(0.1991858482 -0.1150000021 0)
(0.2062807232 -0.1017263979 0)
(0.2124922872 -0.08801718801 0)
(0.2177939266 -0.07393107563 0)
(0.2221629471 -0.05952838063 0)
(0.2255806178 -0.04487077519 0)
(0.2280323207 -0.03002102487 0)
(0.2295075506 -0.01504271943 0)
(0.2295075506 0.01504271943 6.900000095)
(0.2300000042 -5.633375257e-17 6.900000095)
(0.2280323207 0.03002102487 6.900000095)
(0.2255806178 0.04487077519 6.900000095)
(0.2221629471 0.05952838063 6.900000095)
(0.2177939266 0.07393107563 6.900000095)
(0.2124922872 0.08801718801 6.900000095)
(0.2062807232 0.1017263979 6.900000095)
(0.1991858482 0.1150000021 6.900000095)
(0.1912380159 0.1277811527 6.900000095)
(0.1824712753 0.1400151253 6.900000095)
(0.1729231626 0.1516495347 6.900000095)
(0.1626345664 0.1626345664 6.900000095)
(0.1516495347 0.1729231626 6.900000095)
(0.1400151253 0.1824712753 6.900000095)
(0.1277811527 0.1912380159 6.900000095)
(0.1150000021 0.1991858482 6.900000095)
(0.1017263979 0.2062807232 6.900000095)
(0.08801718801 0.2124922872 6.900000095)
(0.07393107563 0.2177939266 6.900000095)
(0.05952838063 0.2221629471 6.900000095)
(0.04487077519 0.2255806178 6.900000095)
(0.03002102487 0.2280323207 6.900000095)
(0.01504271943 0.2295075506 6.900000095)
(0.01504271943 -0.2295075506 6.900000095)
(0.03002102487 -0.2280323207 6.900000095)
(0.04487077519 -0.2255806178 6.900000095)
(0.05952838063 -0.2221629471 6.900000095)
(0.07393107563 -0.2177939266 6.900000095)
(0.08801718801 -0.2124922872 6.900000095)
(0.1017263979 -0.2062807232 6.900000095)
(0.1150000021 -0.1991858482 6.900000095)
(0.1277811527 -0.1912380159 6.900000095)
(0.1400151253 -0.1824712753 6.900000095)
(0.1516495347 -0.1729231626 6.900000095)
(0.1626345664 -0.1626345664 6.900000095)
(0.1729231626 -0.1516495347 6.900000095)
(0.1824712753 -0.1400151253 6.900000095)
(0.1912380159 -0.1277811527 6.900000095)
(0.1991858482 -0.1150000021 6.900000095)
(0.2062807232 -0.1017263979 6.900000095)
(0.2124922872 -0.08801718801 6.900000095)
(0.2177939266 -0.07393107563 6.900000095)
(0.2221629471 -0.05952838063 6.900000095)
(0.2255806178 -0.04487077519 6.900000095)
(0.2280323207 -0.03002102487 6.900000095)
(0.2295075506 -0.01504271943 6.900000095)
(0 0.2285005748 2.41506815)
(0 0.2277617604 2.414206982)
(0 0.2270339578 2.413077354)
(0 0.2263199687 2.411706209)
(0 0.22562249 2.410115957)
(0 0.2249442339 2.408324718)
(0 0.224287793 2.406347275)
(0 0.223655805 2.40419507)
(0 0.2230507284 2.401877165)
(0 0.2224750519 2.399400473)
(0 0.2219311446 2.396769762)
(0 0.2214212567 2.393988371)
(0 0.2209476084 2.391058207)
(0 0.2205122262 2.387980223)
(0 0.2201170623 2.384754181)
(0 0.2197639048 2.381379128)
(0 0.2194543779 2.377853155)
(0 0.2191899121 2.374174595)
(0 0.218971774 2.370340586)
(0 0.2188009918 2.366348267)
(0 0.2186784297 2.362194538)
(0 0.2186046243 2.357875586)
(0 0.2185799927 2.353388071)
(0 0.2186046243 2.348728418)
(0 0.2186784297 2.343893051)
(0 0.2188009918 2.338877439)
(0 0.218971774 2.333678246)
(0 0.2191899121 2.328291178)
(0 0.2194543779 2.322712183)
(0 0.2197639048 2.31693697)
(0 0.2201170623 2.310961485)
(0 0.2205122262 2.30478096)
(0 0.2209476084 2.298390865)
(0 0.2214212567 2.291786432)
(0 0.2219311446 2.284962654)
(0 0.2224750519 2.277914524)
(0 0.2230507284 2.270636559)
(0 0.223655805 2.263123035)
(0 0.224287793 2.255369186)
(0 0.2249442339 2.247369528)
(0 0.22562249 2.239118338)
(0 0.2263199687 2.230611563)
(0 0.2270339578 2.227424145)
(0 0.2270339578 2.233003378)
(0 0.2270339578 2.238582373)
(0 0.2275354266 2.246445417)
(0 0.2280326039 2.257558584)
(1.734723476e-18 0.2285265625 2.274358988)
(1.734723476e-18 0.22901842 2.302536726)
(0 0.2295092046 2.35918498)
(0.05780097842 1.043380976 0.8987599015)
(0.05792500079 1.040099978 0.8968656659)
(0.05742944404 1.046647787 0.9006460309)
(0.05681198835 1.049886584 0.9025159478)
(0.05595125258 1.053083539 0.9043616652)
(0.05485092849 1.056224823 0.9061753154)
(0.05351572111 1.059297085 0.90794909)
(0.05195135251 1.062287211 0.9096754193)
(0.05016452074 1.065182209 0.9113469124)
(0.04816287756 1.067969918 0.912956357)
(0.04595499113 1.07063818 0.9144968987)
(0.04355031997 1.073175788 0.9159619212)
(0.04095916077 1.075571656 0.9173452258)
(0.03819260746 1.077815652 0.9186407924)
(0.03526250646 1.079898238 0.9198431373)
(0.03218140453 1.081810236 0.9209470749)
(0.02896250039 1.083543777 0.9219478965)
(0.02561957203 1.085091233 0.9228413105)
(0.02216693759 1.086445928 0.9236235023)
(0.01861938089 1.087602258 0.9242911339)
(0.01499209274 1.088555217 0.9248412848)
(0.01130060665 1.089300632 0.9252716303)
(0.007560729515 1.089835405 0.9255803823)
(0.003788476344 1.090157151 0.9257661104)
(0.003788476344 0.9900428653 0.8679651618)
(0.007560729515 0.9903646708 0.8681508899)
(0.01130060665 0.990899384 0.8684596419)
(0.01499209274 0.9916447997 0.8688899875)
(0.01861938089 0.9925976992 0.8694401979)
(0.02216693759 0.9937540293 0.87010777)
(0.02561957203 0.9951087832 0.8708899617)
(0.02896250039 0.996656239 0.8717833757)
(0.03218140453 0.9983897209 0.8727841973)
(0.03526250646 1.000301838 0.873888135)
(0.03819260746 1.002384305 0.8750904799)
(0.04095916077 1.004628301 0.8763860464)
(0.04355031997 1.007024288 0.877769351)
(0.04595499113 1.009561777 0.8792343736)
(0.04816287756 1.012230039 0.8807749152)
(0.05016452074 1.015017748 0.8823844194)
(0.05195135251 1.017912745 0.8840558529)
(0.05351572111 1.020902872 0.8857821822)
(0.05485092849 1.023975134 0.8875559568)
(0.05595125258 1.027116418 0.889369607)
(0.05681198835 1.030313373 0.8912153244)
(0.05742944404 1.03355217 0.8930853009)
(0.05780097842 1.0368191 0.8949714303)
(0.003788476344 0.2299688011 2.41565609)
(0.007560729515 0.2298756987 2.41507411)
(0.01130060665 0.2297222167 2.414105177)
(0.01499209274 0.2295108587 2.412749767)
(0.01861938089 0.2292451113 2.411009312)
(0.02216693759 0.228929311 2.408885956)
(0.02561957203 0.2285686731 2.406381845)
(0.02896250039 0.228169173 2.40350008)
(0.03218140453 0.2277374715 2.400244474)
(0.03526250646 0.2272807807 2.396619797)
(0.03819260746 0.2268068045 2.392631531)
(0.04095916077 0.226323545 2.388286114)
(0.04355031997 0.2258392572 2.38359189)
(0.04595499113 0.2253622413 2.37855792)
(0.04816287756 0.2249007225 2.373194933)
(0.05016452074 0.2244627327 2.367515802)
(0.05195135251 0.2240559161 2.361534595)
(0.05351572111 0.2236874253 2.355267525)
(0.05485092849 0.223363772 2.348732948)
(0.05595125258 0.2230906934 2.34195137)
(0.05681198835 0.222873047 2.33494544)
(0.05742944404 0.222714752 2.327739954)
(0.05780097842 0.2226186097 2.320361853)
(0.05792500079 0.2225863785 2.3128407)
(0.05780097842 0.2226186097 2.305207968)
(0.05742944404 0.222714752 2.297497034)
(0.05681198835 0.222873047 2.289742947)
(0.05595125258 0.2230906934 2.281983137)
(0.05485092849 0.223363772 2.274255514)
(0.05351572111 0.2236874253 2.266599894)
(0.05195135251 0.2240559161 2.25905633)
(0.05016452074 0.2244627327 2.251665831)
(0.04816287756 0.2249007225 2.244469404)
(0.04595499113 0.2253622413 2.23750782)
(0.04355031997 0.2258392572 2.230821371)
(0.04095916077 0.226323545 2.224449396)
(0.03819260746 0.2268068045 2.218430042)
(0.03526250646 0.2272807807 2.212799788)
(0.03218140453 0.2277374715 2.207592964)
(0.02896250039 0.228169173 2.202841997)
(0.02561957203 0.2285686731 2.19857645)
(0.02216693759 0.228929311 2.194823027)
(0.01861938089 0.2292451113 2.191605568)
(0.01130060665 0.2297222167 2.186857224)
(0.007560729515 0.2298756987 2.185356379)
(0.003788476344 0.2299688011 2.184452057)
)


// edges:

1884
(
(659 353)
(660 659)
(661 660)
(662 661)
(663 662)
(664 663)
(665 664)
(666 665)
(667 666)
(668 667)
(669 668)
(670 669)
(671 670)
(672 671)
(673 672)
(674 673)
(675 674)
(676 675)
(677 676)
(678 677)
(679 678)
(680 679)
(681 680)
(682 681)
(683 682)
(684 683)
(685 684)
(686 685)
(687 686)
(688 687)
(689 688)
(690 689)
(691 690)
(692 691)
(693 692)
(694 693)
(695 694)
(696 695)
(697 696)
(698 697)
(699 698)
(700 699)
(701 700)
(354 351)
(351 701)
(702 351)
(703 702)
(704 703)
(352 704)
(468 469)
(469 470)
(470 471)
(471 472)
(472 473)
(473 474)
(474 475)
(475 476)
(476 477)
(477 478)
(478 479)
(479 480)
(480 481)
(481 482)
(482 483)
(483 484)
(484 485)
(485 486)
(486 487)
(487 488)
(488 489)
(489 490)
(490 491)
(491 1)
(3 3)
(3 492)
(492 493)
(493 494)
(494 495)
(495 496)
(496 497)
(497 498)
(498 499)
(499 500)
(500 501)
(501 502)
(502 503)
(503 504)
(504 505)
(505 506)
(506 507)
(507 508)
(508 509)
(509 510)
(510 511)
(511 512)
(512 513)
(513 514)
(514 468)
(515 516)
(517 515)
(518 517)
(519 518)
(520 519)
(521 520)
(522 521)
(523 522)
(524 523)
(525 524)
(526 525)
(527 526)
(528 527)
(529 528)
(530 529)
(531 530)
(532 531)
(533 532)
(534 533)
(535 534)
(536 535)
(537 536)
(538 537)
(349 538)
(349 349)
(539 350)
(540 539)
(541 540)
(542 541)
(543 542)
(544 543)
(545 544)
(546 545)
(547 546)
(548 547)
(549 548)
(550 549)
(551 550)
(552 551)
(553 552)
(554 553)
(555 554)
(556 555)
(557 556)
(558 557)
(559 558)
(560 559)
(561 560)
(516 561)
(467 562)
(562 563)
(563 564)
(564 565)
(565 566)
(566 567)
(567 568)
(568 569)
(569 570)
(570 571)
(571 572)
(572 573)
(573 574)
(574 575)
(575 576)
(576 577)
(577 578)
(578 579)
(579 580)
(580 581)
(581 582)
(582 583)
(583 584)
(584 585)
(585 586)
(586 587)
(587 588)
(588 589)
(589 590)
(590 591)
(591 592)
(592 593)
(593 594)
(594 595)
(595 596)
(596 597)
(597 598)
(598 599)
(599 600)
(600 601)
(601 602)
(602 603)
(603 354)
(354 604)
(604 605)
(605 606)
(606 607)
(607 608)
(608 609)
(609 610)
(610 611)
(611 123)
(612 613)
(614 612)
(615 614)
(616 615)
(617 616)
(618 617)
(619 618)
(620 619)
(621 620)
(622 621)
(623 622)
(624 623)
(625 624)
(626 625)
(627 626)
(628 627)
(629 628)
(630 629)
(631 630)
(632 631)
(633 632)
(634 633)
(635 634)
(465 635)
(465 465)
(636 466)
(637 636)
(638 637)
(639 638)
(640 639)
(641 640)
(642 641)
(643 642)
(644 643)
(645 644)
(646 645)
(647 646)
(648 647)
(649 648)
(650 649)
(651 650)
(652 651)
(653 652)
(654 653)
(655 654)
(656 655)
(657 656)
(658 657)
(613 658)
(1 0)
(0 0)
(1 1)
(2 2)
(2 2)
(2 2)
(3 2)
(2 3)
(0 4)
(4 4)
(5 5)
(5 5)
(5 5)
(2 5)
(5 2)
(4 6)
(6 6)
(7 7)
(7 7)
(7 7)
(5 7)
(7 5)
(6 8)
(8 8)
(9 9)
(9 9)
(9 9)
(7 9)
(9 7)
(8 10)
(10 10)
(11 11)
(11 11)
(11 11)
(9 11)
(11 9)
(10 12)
(12 12)
(13 13)
(13 13)
(13 13)
(11 13)
(13 11)
(12 14)
(14 14)
(15 15)
(15 15)
(15 15)
(13 15)
(15 13)
(14 16)
(16 16)
(17 17)
(17 17)
(17 17)
(15 17)
(17 15)
(16 18)
(18 18)
(19 19)
(19 19)
(19 19)
(17 19)
(19 17)
(18 20)
(20 20)
(21 21)
(21 21)
(21 21)
(19 21)
(21 19)
(20 22)
(22 22)
(23 23)
(23 23)
(23 23)
(21 23)
(23 21)
(22 24)
(24 24)
(25 25)
(25 25)
(25 25)
(23 25)
(25 23)
(24 26)
(26 26)
(27 27)
(27 27)
(27 27)
(25 27)
(27 25)