/*--------------------------------*- C++ -*----------------------------------*\
| =========                 |                                                 |
| \\      /  F ield         | OpenFOAM: The Open Source CFD Toolbox           |
|  \\    /   O peration     | Version:  2406                                  |
|   \\  /    A nd           | Website:  www.openfoam.com                      |
|    \\/     M anipulation  |                                                 |
\*---------------------------------------------------------------------------*/
FoamFile
{
    version     2.0;
    format      ascii;
    arch        "LSB;label=32;scalar=64";
    class       featureEdgeMesh;
    location    "constant/triSurface";
    object      branch_inlet.eMesh;
}
// * * * * * * * * * * * * * * * * * * * * * * * * * * * * * * * * * * * * * //


// points:

50
(
(0 2.335999966 2.299999952)
(0 2.335999966 2.38774991)
(-1.611941418e-17 2.335999966 2.212249994)
(0.08756212145 2.335999966 2.305739164)
(0.08775000274 2.335999966 2.299999952)
(0.08699928969 2.335999966 2.311453581)
(0.08606390655 2.335999966 2.317119122)
(0.08475998789 2.335999966 2.322711468)
(0.08309312165 2.335999966 2.328206301)
(0.08107043058 2.335999966 2.333580494)
(0.0787005797 2.335999966 2.338810921)
(0.07599373162 2.335999966 2.343874931)
(0.07296145707 2.335999966 2.348751307)
(0.06961675733 2.335999966 2.353418827)
(0.06597394496 2.335999966 2.357857704)
(0.06204862148 2.335999966 2.362048626)
(0.05785759538 2.335999966 2.365973949)
(0.05341881514 2.335999966 2.369616747)
(0.04875128716 2.335999966 2.372961521)
(0.04387500137 2.335999966 2.375993729)
(0.03881083429 2.335999966 2.378700495)
(0.03358047083 2.335999966 2.381070375)
(0.02820631303 2.335999966 2.383093119)
(0.022711372 2.335999966 2.384759903)
(0.01711917669 2.335999966 2.386063814)
(0.01145367324 2.335999966 2.386999369)
(0.005739124492 2.335999966 2.387562037)
(0.005739124492 2.335999966 2.212437868)
(0.01145367324 2.335999966 2.213000774)
(0.01711917669 2.335999966 2.21393609)
(0.022711372 2.335999966 2.215240002)
(0.02820631303 2.335999966 2.216906786)
(0.03358047083 2.335999966 2.218929529)
(0.03881083429 2.335999966 2.22129941)
(0.04387500137 2.335999966 2.224006176)
(0.04875128716 2.335999966 2.227038622)
(0.05341881514 2.335999966 2.230383158)
(0.05785759538 2.335999966 2.234025955)
(0.06204862148 2.335999966 2.237951279)
(0.06597394496 2.335999966 2.242142439)
(0.06961675733 2.335999966 2.246581078)
(0.07296145707 2.335999966 2.251248598)
(0.07599373162 2.335999966 2.256124973)
(0.0787005797 2.335999966 2.261189222)
(0.08107043058 2.335999966 2.266419411)
(0.08309312165 2.335999966 2.271793604)
(0.08475998789 2.335999966 2.277288675)
(0.08606390655 2.335999966 2.282880783)
(0.08699928969 2.335999966 2.288546324)
(0.08756212145 2.335999966 2.294260979)
)


// edges:

54
(
(3 4)
(5 3)
(6 5)
(7 6)
(8 7)
(9 8)
(10 9)
(11 10)
(12 11)
(13 12)
(14 13)
(15 14)
(16 15)
(17 16)
(18 17)
(19 18)
(20 19)
(21 20)
(22 21)
(23 22)
(24 23)
(25 24)
(26 25)
(1 26)
(1 1)
(2 2)
(27 2)
(28 27)
(29 28)
(30 29)
(31 30)
(32 31)
(33 32)
(34 33)
(35 34)
(36 35)
(37 36)
(38 37)
(39 38)
(40 39)
(41 40)
(42 41)
(43 42)
(44 43)
(45 44)
(46 45)
(47 46)
(48 47)
(49 48)
(4 49)
(0 1)
(0 0)
(0 2)
(2 0)
)

// * * * * * * * * * * * * * * * * * * * * * * * * * * * * * * * * * * * * * //


// ************************************************************************* //
