/*--------------------------------*- C++ -*----------------------------------*\
| =========                 |                                                 |
| \\      /  F ield         | OpenFOAM: The Open Source CFD Toolbox           |
|  \\    /   O peration     | Version:  2406                                  |
|   \\  /    A nd           | Website:  www.openfoam.com                      |
|    \\/     M anipulation  |                                                 |
\*---------------------------------------------------------------------------*/
FoamFile
{
    version     2.0;
    format      ascii;
    arch        "LSB;label=32;scalar=64";
    class       featureEdgeMesh;
    location    "constant/triSurface";
    object      wall.eMesh;
}
// * * * * * * * * * * * * * * * * * * * * * * * * * * * * * * * * * * * * * //


// points:

753
(
(0 0.2300000042 0.03833333403)
(0 0.2300000042 3.588879921e-17)
(-4.225031443e-17 -0.2300000042 0.03833333403)
(-4.225031443e-17 -0.2300000042 0)
(0 0.2300000042 0.07666666806)
(-4.225031443e-17 -0.2300000042 0.07666666806)
(0 0.2300000042 0.1150000021)
(-4.225031443e-17 -0.2300000042 0.1150000021)
(0 0.2300000042 0.1533333361)
(-4.225031443e-17 -0.2300000042 0.1533333361)
(0 0.2300000042 0.1916666627)
(-4.225031443e-17 -0.2300000042 0.1916666627)
(0 0.2300000042 0.2300000042)
(-4.225031443e-17 -0.2300000042 0.2300000042)
(0 0.2300000042 0.2683333457)
(-4.225031443e-17 -0.2300000042 0.2683333457)
(0 0.2300000042 0.3066666722)
(-4.225031443e-17 -0.2300000042 0.3066666722)
(0 0.2300000042 0.3449999988)
(-4.225031443e-17 -0.2300000042 0.3449999988)
(0 0.2300000042 0.3833333254)
(-4.225031443e-17 -0.2300000042 0.3833333254)
(0 0.2300000042 0.421666652)
(-4.225031443e-17 -0.2300000042 0.421666652)
(0 0.2300000042 0.4600000083)
(-4.225031443e-17 -0.2300000042 0.4600000083)
(0 0.2300000042 0.4983333349)
(-4.225031443e-17 -0.2300000042 0.4983333349)
(0 0.2300000042 0.5366666913)
(-4.225031443e-17 -0.2300000042 0.5366666913)
(0 0.2300000042 0.5749999881)
(-4.225031443e-17 -0.2300000042 0.5749999881)
(0 0.2300000042 0.6133333445)
(-4.225031443e-17 -0.2300000042 0.6133333445)
(0 0.2300000042 0.6516666412)
(-4.225031443e-17 -0.2300000042 0.6516666412)
(0 0.2300000042 0.6899999976)
(-4.225031443e-17 -0.2300000042 0.6899999976)
(0 0.2300000042 0.728333354)
(-4.225031443e-17 -0.2300000042 0.728333354)
(0 0.2300000042 0.7666666508)
(-4.225031443e-17 -0.2300000042 0.7666666508)
(0 0.2300000042 0.8050000072)
(-4.225031443e-17 -0.2300000042 0.8050000072)
(0 0.2300000042 0.8433333039)
(-4.225031443e-17 -0.2300000042 0.8433333039)
(0 0.2300000042 0.8816666603)
(-4.225031443e-17 -0.2300000042 0.8816666603)
(0 0.2300000042 0.9200000167)
(-4.225031443e-17 -0.2300000042 0.9200000167)
(0 0.2300000042 0.9583333135)
(-4.225031443e-17 -0.2300000042 0.9583333135)
(0 0.2300000042 0.9966666698)
(-4.225031443e-17 -0.2300000042 0.9966666698)
(0 0.2300000042 1.034999967)
(-4.225031443e-17 -0.2300000042 1.034999967)
(0 0.2300000042 1.073333383)
(-4.225031443e-17 -0.2300000042 1.073333383)
(0 0.2300000042 1.111666679)
(-4.225031443e-17 -0.2300000042 1.111666679)
(0 0.2300000042 1.149999976)
(-4.225031443e-17 -0.2300000042 1.149999976)
(0 0.2300000042 1.188333392)
(-4.225031443e-17 -0.2300000042 1.188333392)
(0 0.2300000042 1.226666689)
(-4.225031443e-17 -0.2300000042 1.226666689)
(0 0.2300000042 1.264999986)
(-4.225031443e-17 -0.2300000042 1.264999986)
(0 0.2300000042 1.303333282)
(-4.225031443e-17 -0.2300000042 1.303333282)
(0 0.2300000042 1.341666698)
(-4.225031443e-17 -0.2300000042 1.341666698)
(0 0.2300000042 1.379999995)
(-4.225031443e-17 -0.2300000042 1.379999995)
(0 0.2300000042 1.418333292)
(-4.225031443e-17 -0.2300000042 1.418333292)
(0 0.2300000042 1.456666708)
(-4.225031443e-17 -0.2300000042 1.456666708)
(0 0.2300000042 1.495000005)
(-4.225031443e-17 -0.2300000042 1.495000005)
(0 0.2300000042 1.533333302)
(-4.225031443e-17 -0.2300000042 1.533333302)
(0 0.2300000042 1.571666718)
(-4.225031443e-17 -0.2300000042 1.571666718)
(0 0.2300000042 1.610000014)
(-4.225031443e-17 -0.2300000042 1.610000014)
(0 0.2300000042 1.648333311)
(-4.225031443e-17 -0.2300000042 1.648333311)
(0 0.2300000042 1.686666608)
(-4.225031443e-17 -0.2300000042 1.686666608)
(0 0.2300000042 1.725000024)
(-4.225031443e-17 -0.2300000042 1.725000024)
(0 0.2300000042 1.763333321)
(-4.225031443e-17 -0.2300000042 1.763333321)
(0 0.2300000042 1.801666617)
(-4.225031443e-17 -0.2300000042 1.801666617)
(0 0.2300000042 1.840000033)
(-4.225031443e-17 -0.2300000042 1.840000033)
(0 0.2300000042 1.87833333)
(-4.225031443e-17 -0.2300000042 1.87833333)
(0 0.2300000042 1.916666627)
(-4.225031443e-17 -0.2300000042 1.916666627)
(0 0.2300000042 1.955000043)
(-4.225031443e-17 -0.2300000042 1.955000043)
(0 0.2300000042 1.99333334)
(-4.225031443e-17 -0.2300000042 1.99333334)
(0 0.2300000042 2.031666756)
(-4.225031443e-17 -0.2300000042 2.031666756)
(0 0.2300000042 2.069999933)
(-4.225031443e-17 -0.2300000042 2.069999933)
(0 0.2300000042 2.108333349)
(-4.225031443e-17 -0.2300000042 2.108333349)
(-4.225031443e-17 -0.2300000042 2.146666765)
(-4.225031443e-17 -0.2300000042 2.184999943)
(-4.225031443e-17 -0.2300000042 2.223333359)
(-4.225031443e-17 -0.2300000042 2.261666775)
(-4.225031443e-17 -0.2300000042 2.299999952)
(-4.225031443e-17 -0.2300000042 2.338333368)
(-4.225031443e-17 -0.2300000042 2.376666784)
(-4.225031443e-17 -0.2300000042 2.414999962)
(-4.225031443e-17 -0.2300000042 2.453333378)
(-4.225031443e-17 -0.2300000042 2.491666555)
(0 0.2300000042 2.529999971)
(1.408343814e-17 0.2300000042 2.491666555)
(-4.225031443e-17 -0.2300000042 2.529999971)
(0 0.2300000042 2.568333387)
(-4.225031443e-17 -0.2300000042 2.568333387)
(0 0.2300000042 2.606666565)
(-4.225031443e-17 -0.2300000042 2.606666565)
(0 0.2300000042 2.644999981)
(-4.225031443e-17 -0.2300000042 2.644999981)
(0 0.2300000042 2.683333397)
(-4.225031443e-17 -0.2300000042 2.683333397)
(0 0.2300000042 2.721666574)
(-4.225031443e-17 -0.2300000042 2.721666574)
(0 0.2300000042 2.75999999)
(-4.225031443e-17 -0.2300000042 2.75999999)
(0 0.2300000042 2.798333406)
(-4.225031443e-17 -0.2300000042 2.798333406)
(0 0.2300000042 2.836666584)
(-4.225031443e-17 -0.2300000042 2.836666584)
(0 0.2300000042 2.875)
(-4.225031443e-17 -0.2300000042 2.875)
(0 0.2300000042 2.913333416)
(-4.225031443e-17 -0.2300000042 2.913333416)
(0 0.2300000042 2.951666594)
(-4.225031443e-17 -0.2300000042 2.951666594)
(0 0.2300000042 2.99000001)
(-4.225031443e-17 -0.2300000042 2.99000001)
(0 0.2300000042 3.028333426)
(-4.225031443e-17 -0.2300000042 3.028333426)
(0 0.2300000042 3.066666603)
(-4.225031443e-17 -0.2300000042 3.066666603)
(0 0.2300000042 3.105000019)
(-4.225031443e-17 -0.2300000042 3.105000019)
(0 0.2300000042 3.143333435)
(-4.225031443e-17 -0.2300000042 3.143333435)
(0 0.2300000042 3.181666613)
(-4.225031443e-17 -0.2300000042 3.181666613)
(0 0.2300000042 3.220000029)
(-4.225031443e-17 -0.2300000042 3.220000029)
(0 0.2300000042 3.258333445)
(-4.225031443e-17 -0.2300000042 3.258333445)
(0 0.2300000042 3.296666622)
(-4.225031443e-17 -0.2300000042 3.296666622)
(0 0.2300000042 3.335000038)
(-4.225031443e-17 -0.2300000042 3.335000038)
(0 0.2300000042 3.373333216)
(-4.225031443e-17 -0.2300000042 3.373333216)
(0 0.2300000042 3.411666632)
(-4.225031443e-17 -0.2300000042 3.411666632)
(0 0.2300000042 3.450000048)
(-4.225031443e-17 -0.2300000042 3.450000048)
(0 0.2300000042 3.488333225)
(-4.225031443e-17 -0.2300000042 3.488333225)
(0 0.2300000042 3.526666641)
(-4.225031443e-17 -0.2300000042 3.526666641)
(0 0.2300000042 3.565000057)
(-4.225031443e-17 -0.2300000042 3.565000057)
(0 0.2300000042 3.603333235)
(-4.225031443e-17 -0.2300000042 3.603333235)
(0 0.2300000042 3.641666651)
(-4.225031443e-17 -0.2300000042 3.641666651)
(0 0.2300000042 3.680000067)
(-4.225031443e-17 -0.2300000042 3.680000067)
(0 0.2300000042 3.718333244)
(-4.225031443e-17 -0.2300000042 3.718333244)
(0 0.2300000042 3.75666666)
(-4.225031443e-17 -0.2300000042 3.75666666)
(0 0.2300000042 3.795000076)
(-4.225031443e-17 -0.2300000042 3.795000076)
(0 0.2300000042 3.833333254)
(-4.225031443e-17 -0.2300000042 3.833333254)
(0 0.2300000042 3.87166667)
(-4.225031443e-17 -0.2300000042 3.87166667)
(0 0.2300000042 3.910000086)
(-4.225031443e-17 -0.2300000042 3.910000086)
(0 0.2300000042 3.948333263)
(-4.225031443e-17 -0.2300000042 3.948333263)
(0 0.2300000042 3.986666679)
(-4.225031443e-17 -0.2300000042 3.986666679)
(0 0.2300000042 4.025000095)
(-4.225031443e-17 -0.2300000042 4.025000095)
(0 0.2300000042 4.063333511)
(-4.225031443e-17 -0.2300000042 4.063333511)
(0 0.2300000042 4.101666451)
(-4.225031443e-17 -0.2300000042 4.101666451)
(0 0.2300000042 4.139999866)
(-4.225031443e-17 -0.2300000042 4.139999866)
(0 0.2300000042 4.178333282)
(-4.225031443e-17 -0.2300000042 4.178333282)
(0 0.2300000042 4.216666698)
(-4.225031443e-17 -0.2300000042 4.216666698)
(0 0.2300000042 4.255000114)
(-4.225031443e-17 -0.2300000042 4.255000114)
(0 0.2300000042 4.29333353)
(-4.225031443e-17 -0.2300000042 4.29333353)
(0 0.2300000042 4.33166647)
(-4.225031443e-17 -0.2300000042 4.33166647)
(0 0.2300000042 4.369999886)
(-4.225031443e-17 -0.2300000042 4.369999886)
(0 0.2300000042 4.408333302)
(-4.225031443e-17 -0.2300000042 4.408333302)
(0 0.2300000042 4.446666718)
(-4.225031443e-17 -0.2300000042 4.446666718)
(0 0.2300000042 4.485000134)
(-4.225031443e-17 -0.2300000042 4.485000134)
(0 0.2300000042 4.523333549)
(-4.225031443e-17 -0.2300000042 4.523333549)
(0 0.2300000042 4.561666489)
(-4.225031443e-17 -0.2300000042 4.561666489)
(0 0.2300000042 4.599999905)
(-4.225031443e-17 -0.2300000042 4.599999905)
(0 0.2300000042 4.638333321)
(-4.225031443e-17 -0.2300000042 4.638333321)
(0 0.2300000042 4.676666737)
(-4.225031443e-17 -0.2300000042 4.676666737)
(0 0.2300000042 4.715000153)
(-4.225031443e-17 -0.2300000042 4.715000153)
(0 0.2300000042 4.753333569)
(-4.225031443e-17 -0.2300000042 4.753333569)
(0 0.2300000042 4.791666508)
(-4.225031443e-17 -0.2300000042 4.791666508)
(0 0.2300000042 4.829999924)
(-4.225031443e-17 -0.2300000042 4.829999924)
(0 0.2300000042 4.86833334)
(-4.225031443e-17 -0.2300000042 4.86833334)
(0 0.2300000042 4.906666756)
(-4.225031443e-17 -0.2300000042 4.906666756)
(0 0.2300000042 4.945000172)
(-4.225031443e-17 -0.2300000042 4.945000172)
(0 0.2300000042 4.983333111)
(-4.225031443e-17 -0.2300000042 4.983333111)
(0 0.2300000042 5.021666527)
(-4.225031443e-17 -0.2300000042 5.021666527)
(0 0.2300000042 5.059999943)
(-4.225031443e-17 -0.2300000042 5.059999943)
(0 0.2300000042 5.098333359)
(-4.225031443e-17 -0.2300000042 5.098333359)
(0 0.2300000042 5.136666775)
(-4.225031443e-17 -0.2300000042 5.136666775)
(0 0.2300000042 5.175000191)
(-4.225031443e-17 -0.2300000042 5.175000191)
(0 0.2300000042 5.21333313)
(-4.225031443e-17 -0.2300000042 5.21333313)
(0 0.2300000042 5.251666546)
(-4.225031443e-17 -0.2300000042 5.251666546)
(0 0.2300000042 5.289999962)
(-4.225031443e-17 -0.2300000042 5.289999962)
(0 0.2300000042 5.328333378)
(-4.225031443e-17 -0.2300000042 5.328333378)
(0 0.2300000042 5.366666794)
(-4.225031443e-17 -0.2300000042 5.366666794)
(0 0.2300000042 5.40500021)
(-4.225031443e-17 -0.2300000042 5.40500021)
(0 0.2300000042 5.443333149)
(-4.225031443e-17 -0.2300000042 5.443333149)
(0 0.2300000042 5.481666565)
(-4.225031443e-17 -0.2300000042 5.481666565)
(0 0.2300000042 5.519999981)
(-4.225031443e-17 -0.2300000042 5.519999981)
(0 0.2300000042 5.558333397)
(-4.225031443e-17 -0.2300000042 5.558333397)
(0 0.2300000042 5.596666813)
(-4.225031443e-17 -0.2300000042 5.596666813)
(0 0.2300000042 5.635000229)
(-4.225031443e-17 -0.2300000042 5.635000229)
(0 0.2300000042 5.673333168)
(-4.225031443e-17 -0.2300000042 5.673333168)
(0 0.2300000042 5.711666584)
(-4.225031443e-17 -0.2300000042 5.711666584)
(0 0.2300000042 5.75)
(-4.225031443e-17 -0.2300000042 5.75)
(0 0.2300000042 5.788333416)
(-4.225031443e-17 -0.2300000042 5.788333416)
(0 0.2300000042 5.826666832)
(-4.225031443e-17 -0.2300000042 5.826666832)
(0 0.2300000042 5.864999771)
(-4.225031443e-17 -0.2300000042 5.864999771)
(0 0.2300000042 5.903333187)
(-4.225031443e-17 -0.2300000042 5.903333187)
(0 0.2300000042 5.941666603)
(-4.225031443e-17 -0.2300000042 5.941666603)
(0 0.2300000042 5.980000019)
(-4.225031443e-17 -0.2300000042 5.980000019)
(0 0.2300000042 6.018333435)
(-4.225031443e-17 -0.2300000042 6.018333435)
(0 0.2300000042 6.056666851)
(-4.225031443e-17 -0.2300000042 6.056666851)
(0 0.2300000042 6.09499979)
(-4.225031443e-17 -0.2300000042 6.09499979)
(0 0.2300000042 6.133333206)
(-4.225031443e-17 -0.2300000042 6.133333206)
(0 0.2300000042 6.171666622)
(-4.225031443e-17 -0.2300000042 6.171666622)
(0 0.2300000042 6.210000038)
(-4.225031443e-17 -0.2300000042 6.210000038)
(0 0.2300000042 6.248333454)
(-4.225031443e-17 -0.2300000042 6.248333454)
(0 0.2300000042 6.28666687)
(-4.225031443e-17 -0.2300000042 6.28666687)
(0 0.2300000042 6.324999809)
(-4.225031443e-17 -0.2300000042 6.324999809)
(0 0.2300000042 6.363333225)
(-4.225031443e-17 -0.2300000042 6.363333225)
(0 0.2300000042 6.401666641)
(-4.225031443e-17 -0.2300000042 6.401666641)
(0 0.2300000042 6.440000057)
(-4.225031443e-17 -0.2300000042 6.440000057)
(0 0.2300000042 6.478333473)
(-4.225031443e-17 -0.2300000042 6.478333473)
(0 0.2300000042 6.516666889)
(-4.225031443e-17 -0.2300000042 6.516666889)
(0 0.2300000042 6.554999828)
(-4.225031443e-17 -0.2300000042 6.554999828)
(0 0.2300000042 6.593333244)
(-4.225031443e-17 -0.2300000042 6.593333244)
(0 0.2300000042 6.63166666)
(-4.225031443e-17 -0.2300000042 6.63166666)
(0 0.2300000042 6.670000076)
(-4.225031443e-17 -0.2300000042 6.670000076)
(0 0.2300000042 6.708333492)
(-4.225031443e-17 -0.2300000042 6.708333492)
(0 0.2300000042 6.746666431)
(-4.225031443e-17 -0.2300000042 6.746666431)
(0 0.2300000042 6.784999847)
(-4.225031443e-17 -0.2300000042 6.784999847)
(0 0.2300000042 6.823333263)
(-4.225031443e-17 -0.2300000042 6.823333263)
(0 0.2300000042 6.861666679)
(-4.225031443e-17 -0.2300000042 6.861666679)
(0 0.2300000042 6.900000095)
(-4.225031443e-17 -0.2300000042 6.900000095)
(0.04875128716 0.2247739136 2.227038622)
(-1.611941418e-17 0.2300000042 2.212249994)
(0 0.2300000042 2.38774991)
(0 0.2171559483 2.282997608)
(0 0.2560000122 2.38774991)
(-1.611941418e-17 0.2560000122 2.212249994)
(0 0.2820000052 2.38774991)
(-1.611941418e-17 0.2820000052 2.212249994)
(0 0.3079999983 2.38774991)
(-1.611941418e-17 0.3079999983 2.212249994)
(0 0.3339999914 2.38774991)
(-1.611941418e-17 0.3339999914 2.212249994)
(0 0.3600000143 2.38774991)
(-1.611941418e-17 0.3600000143 2.212249994)
(0 0.3860000074 2.38774991)
(-1.611941418e-17 0.3860000074 2.212249994)
(0 0.4120000005 2.38774991)
(-1.611941418e-17 0.4120000005 2.212249994)
(0 0.4379999936 2.38774991)
(-1.611941418e-17 0.4379999936 2.212249994)
(0 0.4639999866 2.38774991)
(-1.611941418e-17 0.4639999866 2.212249994)
(0 0.4900000095 2.38774991)
(-1.611941418e-17 0.4900000095 2.212249994)
(0 0.5159999728 2.38774991)
(-1.611941418e-17 0.5159999728 2.212249994)
(0 0.5419999957 2.38774991)
(-1.611941418e-17 0.5419999957 2.212249994)
(0 0.5680000186 2.38774991)
(-1.611941418e-17 0.5680000186 2.212249994)
(0 0.5939999819 2.38774991)
(-1.611941418e-17 0.5939999819 2.212249994)
(0 0.6200000048 2.38774991)
(-1.611941418e-17 0.6200000048 2.212249994)
(0 0.6460000277 2.38774991)
(-1.611941418e-17 0.6460000277 2.212249994)
(0 0.6719999909 2.38774991)
(-1.611941418e-17 0.6719999909 2.212249994)
(0 0.6980000138 2.38774991)
(-1.611941418e-17 0.6980000138 2.212249994)
(0 0.7239999771 2.38774991)
(-1.611941418e-17 0.7239999771 2.212249994)
(0 0.75 2.38774991)
(-1.611941418e-17 0.75 2.212249994)
(0 0.7760000229 2.38774991)
(-1.611941418e-17 0.7760000229 2.212249994)
(0 0.8019999862 2.38774991)
(-1.611941418e-17 0.8019999862 2.212249994)
(0 0.8280000091 2.38774991)
(-1.611941418e-17 0.8280000091 2.212249994)
(0 0.8539999723 2.38774991)
(-1.611941418e-17 0.8539999723 2.212249994)
(0 0.8799999952 2.38774991)
(-1.611941418e-17 0.8799999952 2.212249994)
(0 0.9060000181 2.38774991)
(-1.611941418e-17 0.9060000181 2.212249994)
(0 0.9319999814 2.38774991)
(-1.611941418e-17 0.9319999814 2.212249994)
(0 0.9580000043 2.38774991)
(-1.611941418e-17 0.9580000043 2.212249994)
(0 0.9840000272 2.38774991)
(-1.611941418e-17 0.9840000272 2.212249994)
(0 1.00999999 2.38774991)
(-1.611941418e-17 1.00999999 2.212249994)
(0 1.036000013 2.38774991)
(-1.611941418e-17 1.036000013 2.212249994)
(0 1.062000036 2.38774991)
(-1.611941418e-17 1.062000036 2.212249994)
(0 1.088000059 2.38774991)
(-1.611941418e-17 1.088000059 2.212249994)
(0 1.113999963 2.38774991)
(-1.611941418e-17 1.113999963 2.212249994)
(0 1.139999986 2.38774991)
(-1.611941418e-17 1.139999986 2.212249994)
(0 1.166000009 2.38774991)
(-1.611941418e-17 1.166000009 2.212249994)
(0 1.192000031 2.38774991)
(-1.611941418e-17 1.192000031 2.212249994)
(0 1.218000054 2.38774991)
(-1.611941418e-17 1.218000054 2.212249994)
(0 1.243999958 2.38774991)
(-1.611941418e-17 1.243999958 2.212249994)
(0 1.269999981 2.38774991)
(-1.611941418e-17 1.269999981 2.212249994)
(0 1.296000004 2.38774991)
(-1.611941418e-17 1.296000004 2.212249994)
(0 1.322000027 2.38774991)
(-1.611941418e-17 1.322000027 2.212249994)
(0 1.34800005 2.38774991)
(-1.611941418e-17 1.34800005 2.212249994)
(0 1.373999953 2.38774991)
(-1.611941418e-17 1.373999953 2.212249994)
(0 1.399999976 2.38774991)
(-1.611941418e-17 1.399999976 2.212249994)
(0 1.425999999 2.38774991)
(-1.611941418e-17 1.425999999 2.212249994)
(0 1.452000022 2.38774991)
(-1.611941418e-17 1.452000022 2.212249994)
(0 1.478000045 2.38774991)
(-1.611941418e-17 1.478000045 2.212249994)
(0 1.503999949 2.38774991)
(-1.611941418e-17 1.503999949 2.212249994)
(0 1.529999971 2.38774991)
(-1.611941418e-17 1.529999971 2.212249994)
(0 1.555999994 2.38774991)
(-1.611941418e-17 1.555999994 2.212249994)
(0 1.582000017 2.38774991)
(-1.611941418e-17 1.582000017 2.212249994)
(0 1.60800004 2.38774991)
(-1.611941418e-17 1.60800004 2.212249994)
(0 1.633999944 2.38774991)
(-1.611941418e-17 1.633999944 2.212249994)
(0 1.659999967 2.38774991)
(-1.611941418e-17 1.659999967 2.212249994)
(0 1.68599999 2.38774991)
(-1.611941418e-17 1.68599999 2.212249994)
(0 1.712000012 2.38774991)
(-1.611941418e-17 1.712000012 2.212249994)
(0 1.738000035 2.38774991)
(-1.611941418e-17 1.738000035 2.212249994)
(0 1.764000058 2.38774991)
(-1.611941418e-17 1.764000058 2.212249994)
(0 1.789999962 2.38774991)
(-1.611941418e-17 1.789999962 2.212249994)
(0 1.815999985 2.38774991)
(-1.611941418e-17 1.815999985 2.212249994)
(0 1.842000008 2.38774991)
(-1.611941418e-17 1.842000008 2.212249994)
(0 1.868000031 2.38774991)
(-1.611941418e-17 1.868000031 2.212249994)
(0 1.894000053 2.38774991)
(-1.611941418e-17 1.894000053 2.212249994)
(0 1.919999957 2.38774991)
(-1.611941418e-17 1.919999957 2.212249994)
(0 1.94599998 2.38774991)
(-1.611941418e-17 1.94599998 2.212249994)
(0 1.972000003 2.38774991)
(-1.611941418e-17 1.972000003 2.212249994)
(0 1.998000026 2.38774991)
(-1.611941418e-17 1.998000026 2.212249994)
(0 2.023999929 2.38774991)
(-1.611941418e-17 2.023999929 2.212249994)
(0 2.049999952 2.38774991)
(-1.611941418e-17 2.049999952 2.212249994)
(0 2.075999975 2.38774991)
(-1.611941418e-17 2.075999975 2.212249994)
(0 2.101999998 2.38774991)
(-1.611941418e-17 2.101999998 2.212249994)
(0 2.128000021 2.38774991)
(-1.611941418e-17 2.128000021 2.212249994)
(0 2.154000044 2.38774991)
(-1.611941418e-17 2.154000044 2.212249994)
(0 2.180000067 2.38774991)
(-1.611941418e-17 2.180000067 2.212249994)
(0 2.20600009 2.38774991)
(-1.611941418e-17 2.20600009 2.212249994)
(0 2.232000113 2.38774991)
(-1.611941418e-17 2.232000113 2.212249994)
(0 2.257999897 2.38774991)
(-1.611941418e-17 2.257999897 2.212249994)
(0 2.28399992 2.38774991)
(-1.611941418e-17 2.28399992 2.212249994)
(0 2.309999943 2.38774991)
(-1.611941418e-17 2.309999943 2.212249994)
(0 2.335999966 2.38774991)
(-1.611941418e-17 2.335999966 2.212249994)
(0 0.2284670919 2.388866186)
(0.2300000042 -5.633375257e-17 0)
(0.2295075506 0.01504271943 0)
(0.2280323207 0.03002102487 0)
(0.2255806178 0.04487077519 0)
(0.2221629471 0.05952838063 0)
(0.2177939266 0.07393107563 0)
(0.2124922872 0.08801718801 0)
(0.2062807232 0.1017263979 0)
(0.1991858482 0.1150000021 0)
(0.1912380159 0.1277811527 0)
(0.1824712753 0.1400151253 0)
(0.1729231626 0.1516495347 0)
(0.1626345664 0.1626345664 0)
(0.1516495347 0.1729231626 0)
(0.1400151253 0.1824712753 0)
(0.1277811527 0.1912380159 0)
(0.1150000021 0.1991858482 0)
(0.1017263979 0.2062807232 0)
(0.08801718801 0.2124922872 0)
(0.07393107563 0.2177939266 0)
(0.05952838063 0.2221629471 0)
(0.04487077519 0.2255806178 0)
(0.03002102487 0.2280323207 0)
(0.01504271943 0.2295075506 0)
(0.01504271943 -0.2295075506 0)
(0.03002102487 -0.2280323207 0)
(0.04487077519 -0.2255806178 0)
(0.05952838063 -0.2221629471 0)
(0.07393107563 -0.2177939266 0)
(0.08801718801 -0.2124922872 0)
(0.1017263979 -0.2062807232 0)
(0.1150000021 -0.1991858482 0)
(0.1277811527 -0.1912380159 0)
(0.1400151253 -0.1824712753 0)
(0.1516495347 -0.1729231626 0)
(0.1626345664 -0.1626345664 0)
(0.1729231626 -0.1516495347 0)
(0.1824712753 -0.1400151253 0)
(0.1912380159 -0.1277811527 0)
(0.1991858482 -0.1150000021 0)
(0.2062807232 -0.1017263979 0)
(0.2124922872 -0.08801718801 0)
(0.2177939266 -0.07393107563 0)
(0.2221629471 -0.05952838063 0)
(0.2255806178 -0.04487077519 0)
(0.2280323207 -0.03002102487 0)
(0.2295075506 -0.01504271943 0)
(0.2295075506 0.01504271943 6.900000095)
(0.2300000042 -5.633375257e-17 6.900000095)
(0.2280323207 0.03002102487 6.900000095)
(0.2255806178 0.04487077519 6.900000095)
(0.2221629471 0.05952838063 6.900000095)
(0.2177939266 0.07393107563 6.900000095)
(0.2124922872 0.08801718801 6.900000095)
(0.2062807232 0.1017263979 6.900000095)
(0.1991858482 0.1150000021 6.900000095)
(0.1912380159 0.1277811527 6.900000095)
(0.1824712753 0.1400151253 6.900000095)
(0.1729231626 0.1516495347 6.900000095)
(0.1626345664 0.1626345664 6.900000095)
(0.1516495347 0.1729231626 6.900000095)
(0.1400151253 0.1824712753 6.900000095)
(0.1277811527 0.1912380159 6.900000095)
(0.1150000021 0.1991858482 6.900000095)
(0.1017263979 0.2062807232 6.900000095)
(0.08801718801 0.2124922872 6.900000095)
(0.07393107563 0.2177939266 6.900000095)
(0.05952838063 0.2221629471 6.900000095)
(0.04487077519 0.2255806178 6.900000095)
(0.03002102487 0.2280323207 6.900000095)
(0.01504271943 0.2295075506 6.900000095)
(0.01504271943 -0.2295075506 6.900000095)
(0.03002102487 -0.2280323207 6.900000095)
(0.04487077519 -0.2255806178 6.900000095)
(0.05952838063 -0.2221629471 6.900000095)
(0.07393107563 -0.2177939266 6.900000095)
(0.08801718801 -0.2124922872 6.900000095)
(0.1017263979 -0.2062807232 6.900000095)
(0.1150000021 -0.1991858482 6.900000095)
(0.1277811527 -0.1912380159 6.900000095)
(0.1400151253 -0.1824712753 6.900000095)
(0.1516495347 -0.1729231626 6.900000095)
(0.1626345664 -0.1626345664 6.900000095)
(0.1729231626 -0.1516495347 6.900000095)
(0.1824712753 -0.1400151253 6.900000095)
(0.1912380159 -0.1277811527 6.900000095)
(0.1991858482 -0.1150000021 6.900000095)
(0.2062807232 -0.1017263979 6.900000095)
(0.2124922872 -0.08801718801 6.900000095)
(0.2177939266 -0.07393107563 6.900000095)
(0.2221629471 -0.05952838063 6.900000095)
(0.2255806178 -0.04487077519 6.900000095)
(0.2280323207 -0.03002102487 6.900000095)
(0.2295075506 -0.01504271943 6.900000095)
(0 0.2269494534 2.389535666)
(0 0.2254519761 2.389813185)
(0 0.2239794433 2.389747143)
(0 0.2225365937 2.389377594)
(0 0.2211281359 2.388738871)
(-6.938893904e-18 0.2197587639 2.387859821)
(0 0.2184331417 2.386765718)
(0 0.2171559483 2.385477066)
(-6.938893904e-18 0.2159318775 2.384011269)
(0 0.2147655934 2.382383585)
(6.938893904e-18 0.2136617601 2.380605936)
(0 0.212624982 2.378688812)
(0 0.2116598189 2.37664032)
(0 0.2107706964 2.374467134)
(0 0.2099618763 2.372174501)
(0 0.2092374116 2.369766474)
(0 0.2086010724 2.367245436)
(0 0.2080563307 2.364613295)
(0 0.2076062262 2.361870289)
(0 0.207253322 2.35901618)
(0 0.206999734 2.356050014)
(0 0.2068469673 2.352969646)
(0 0.2067959309 2.349771738)
(0 0.2068469673 2.34645319)
(0 0.206999734 2.343008757)
(0 0.207253322 2.339433432)
(0 0.2076062262 2.335720778)
(0 0.2080563307 2.331863642)
(0 0.2086010724 2.327853918)
(0 0.2092374116 2.323682547)
(0 0.2099618763 2.319339037)
(0 0.2107706964 2.314812422)
(0 0.2116598189 2.310089827)
(0 0.212624982 2.305157661)
(6.938893904e-18 0.2136617601 2.299999952)
(0 0.2147655934 2.294600248)
(-6.938893904e-18 0.2159318775 2.288939714)
(0 0.2171559483 2.29440999)
(0 0.2171559483 2.305822372)
(0 0.2187825441 2.312772036)
(0 0.2203961164 2.321365595)
(0 0.2220002264 2.332195997)
(0 0.223598361 2.3461833)
(0 0.2251939774 2.364836931)
(6.938893904e-18 0.2267905027 2.390813828)
(0 0.2283913493 2.42926693)
(0.08756212145 2.335999966 2.305739164)
(0.08775000274 2.335999966 2.299999952)
(0.08699928969 2.335999966 2.311453581)
(0.08606390655 2.335999966 2.317119122)
(0.08475998789 2.335999966 2.322711468)
(0.08309312165 2.335999966 2.328206301)
(0.08107043058 2.335999966 2.333580494)
(0.0787005797 2.335999966 2.338810921)
(0.07599373162 2.335999966 2.343874931)
(0.07296145707 2.335999966 2.348751307)
(0.06961675733 2.335999966 2.353418827)
(0.06597394496 2.335999966 2.357857704)
(0.06204862148 2.335999966 2.362048626)
(0.05785759538 2.335999966 2.365973949)
(0.05341881514 2.335999966 2.369616747)
(0.04875128716 2.335999966 2.372961521)
(0.04387500137 2.335999966 2.375993729)
(0.03881083429 2.335999966 2.378700495)
(0.03358047083 2.335999966 2.381070375)
(0.02820631303 2.335999966 2.383093119)
(0.022711372 2.335999966 2.384759903)
(0.01711917669 2.335999966 2.386063814)
(0.01145367324 2.335999966 2.386999369)
(0.005739124492 2.335999966 2.387562037)
(0.005739124492 2.335999966 2.212437868)
(0.01145367324 2.335999966 2.213000774)
(0.01711917669 2.335999966 2.21393609)
(0.022711372 2.335999966 2.215240002)
(0.02820631303 2.335999966 2.216906786)
(0.03358047083 2.335999966 2.218929529)
(0.03881083429 2.335999966 2.22129941)
(0.04387500137 2.335999966 2.224006176)
(0.04875128716 2.335999966 2.227038622)
(0.05341881514 2.335999966 2.230383158)
(0.05785759538 2.335999966 2.234025955)
(0.06204862148 2.335999966 2.237951279)
(0.06597394496 2.335999966 2.242142439)
(0.06961675733 2.335999966 2.246581078)
(0.07296145707 2.335999966 2.251248598)
(0.07599373162 2.335999966 2.256124973)
(0.0787005797 2.335999966 2.261189222)
(0.08107043058 2.335999966 2.266419411)
(0.08309312165 2.335999966 2.271793604)
(0.08475998789 2.335999966 2.277288675)
(0.08606390655 2.335999966 2.282880783)
(0.08699928969 2.335999966 2.288546324)
(0.08756212145 2.335999966 2.294260979)
(0.022711372 0.2288759351 2.384759903)
(0.01711917669 0.229362011 2.386063814)
(0.02820631303 0.2282638848 2.383093119)
(0.03358047083 0.2275353819 2.381070375)
(0.03881083429 0.2267018259 2.378700495)
(0.04387500137 0.2257764041 2.375993729)
(0.04875128716 0.2247739136 2.372961521)
(0.05341881514 0.2237105966 2.369616747)
(0.05785759538 0.2226039022 2.365973949)
(0.06204862148 0.2214722782 2.362048626)
(0.06597394496 0.2203348279 2.357857704)
(0.06961675733 0.2192111015 2.353418827)
(0.07296145707 0.2181206644 2.348751307)
(0.07599373162 0.2170828283 2.343874931)
(0.0787005797 0.2161162198 2.338810921)
(0.08107043058 0.2152384371 2.333580494)
(0.08309312165 0.2144656926 2.328206301)
(0.08475998789 0.2138124108 2.322711468)
(0.08606390655 0.2132908851 2.317119122)
(0.08699928969 0.2129110694 2.311453581)
(0.08756212145 0.2126802206 2.305739164)
(0.08775000274 0.2126027644 2.299999952)
(0.08756212145 0.2126802206 2.294260979)
(0.08699928969 0.2129110694 2.288546324)
(0.08606390655 0.2132908851 2.282880783)
(0.08475998789 0.2138124108 2.277288675)
(0.08309312165 0.2144656926 2.271793604)
(0.08107043058 0.2152384371 2.266419411)
(0.0787005797 0.2161162198 2.261189222)
(0.07599373162 0.2170828283 2.256124973)
(0.07296145707 0.2181206644 2.251248598)
(0.06961675733 0.2192111015 2.246581078)
(0.06597394496 0.2203348279 2.242142439)
(0.06204862148 0.2214722782 2.237951279)
(0.05785759538 0.2226039022 2.234025955)
(0.05341881514 0.2237105966 2.230383158)
(0.04387500137 0.2257764041 2.224006176)
(0.03881083429 0.2267018259 2.22129941)
(0.03358047083 0.2275353819 2.218929529)
(0.02820631303 0.2282638848 2.216906786)
(0.022711372 0.2288759351 2.215240002)
(0.01711917669 0.229362011 2.21393609)
(0.01145367324 0.229714632 2.213000774)
(0.005739124492 0.2299283892 2.212437868)
(0.005739124492 0.2299283892 2.387562037)
(0.01145367324 0.229714632 2.386999369)
)


// edges:

2059
(
(707 708)
(709 707)
(710 709)
(711 710)
(712 711)
(713 712)
(714 713)
(715 714)
(716 715)
(717 716)
(718 717)
(719 718)
(720 719)
(721 720)
(722 721)
(723 722)
(724 723)
(725 724)
(726 725)
(727 726)
(728 727)
(729 728)
(730 729)
(731 730)
(732 731)
(733 732)
(734 733)
(735 734)
(736 735)
(737 736)
(738 737)
(739 738)
(740 739)
(741 740)
(742 741)
(356 353)
(353 742)
(743 353)
(744 743)
(745 744)
(746 745)
(747 746)
(748 747)
(749 748)
(750 749)
(354 750)
(751 355)
(752 751)
(708 752)
(520 521)
(521 522)
(522 523)
(523 524)
(524 525)
(525 526)
(526 527)
(527 528)
(528 529)
(529 530)
(530 531)
(531 532)
(532 533)
(533 534)
(534 535)
(535 536)
(536 537)
(537 538)
(538 539)
(539 540)
(540 541)
(541 542)
(542 543)
(543 1)
(3 3)
(3 544)
(544 545)
(545 546)
(546 547)
(547 548)
(548 549)
(549 550)
(550 551)
(551 552)
(552 553)
(553 554)
(554 555)
(555 556)
(556 557)
(557 558)
(558 559)
(559 560)
(560 561)
(561 562)
(562 563)
(563 564)
(564 565)
(565 566)
(566 520)
(567 568)
(569 567)
(570 569)
(571 570)
(572 571)
(573 572)
(574 573)
(575 574)
(576 575)
(577 576)
(578 577)
(579 578)
(580 579)
(581 580)
(582 581)
(583 582)
(584 583)
(585 584)
(586 585)
(587 586)
(588 587)
(589 588)
(590 589)
(351 590)
(351 351)
(591 352)
(592 591)
(593 592)
(594 593)
(595 594)
(596 595)
(597 596)
(598 597)
(599 598)
(600 599)
(601 600)
(602 601)
(603 602)
(604 603)
(605 604)
(606 605)
(607 606)
(608 607)
(609 608)
(610 609)
(611 610)
(612 611)
(613 612)
(568 613)
(519 614)
(614 615)
(615 616)
(616 617)
(617 618)
(618 619)
(619 620)
(620 621)
(621 622)
(622 623)