/*--------------------------------*- C++ -*----------------------------------*\
| =========                 |                                                 |
| \\      /  F ield         | OpenFOAM: The Open Source CFD Toolbox           |
|  \\    /   O peration     | Version:  2406                                  |
|   \\  /    A nd           | Website:  www.openfoam.com                      |
|    \\/     M anipulation  |                                                 |
\*---------------------------------------------------------------------------*/
FoamFile
{
    version     2.0;
    format      ascii;
    arch        "LSB;label=32;scalar=64";
    class       featureEdgeMesh;
    location    "constant/triSurface";
    object      branch_inlet.eMesh;
}
// * * * * * * * * * * * * * * * * * * * * * * * * * * * * * * * * * * * * * //


// points:

50
(
(0 0.9200000167 1.104884982)
(3.851859889e-34 0.9591270089 1.127474904)
(-8.299431476e-18 0.8808729649 1.082294941)
(0.04508326575 0.9225590229 1.106362343)
(0.04518000036 0.9200000167 1.104884982)
(0.04479347914 0.9251071215 1.107833505)
(0.04431187734 0.9276332855 1.10929203)
(0.04364052787 0.9301268458 1.110731721)
(0.04278230295 0.9325769544 1.112146258)
(0.04174087569 0.9349732399 1.113529801)
(0.04052070901 0.9373054504 1.11487627)
(0.03912702948 0.9395635128 1.116179943)
(0.03756579757 0.9417378306 1.117435217)
(0.0358437039 0.943819046 1.118636847)
(0.03396812081 0.9457982183 1.119779587)
(0.03194708377 0.9476670027 1.120858431)
(0.02978924476 0.9494172335 1.121868968)
(0.02750384063 0.9510415792 1.122806787)
(0.0251006633 0.9525329471 1.123667836)
(0.02259000018 0.9538850188 1.124448419)
(0.01998260245 0.9550919533 1.125145316)
(0.01728963666 0.956148684 1.125755429)
(0.01452263538 0.9570505619 1.126276135)
(0.0116934441 0.9577938318 1.12670517)
(0.008814181201 0.9583752155 1.127040863)
(0.005897173192 0.9587922692 1.127281666)
(0.002954913303 0.9590432644 1.127426624)
(0.002954913303 0.880956769 1.08234334)
(0.005897173192 0.8812077045 1.082488179)
(0.008814181201 0.8816247582 1.082728982)
(0.0116934441 0.8822062016 1.083064675)
(0.01452263538 0.8829494119 1.083493829)
(0.01728963666 0.8838513494 1.084014535)
(0.01998260245 0.8849080205 1.084624529)
(0.02259000018 0.8861150146 1.085321426)
(0.0251006633 0.8874670863 1.086102009)
(0.02750384063 0.8889584541 1.086963058)
(0.02978924476 0.8905827403 1.087900877)
(0.03194708377 0.8923330307 1.088911414)
(0.03396812081 0.8942017555 1.089990377)
(0.0358437039 0.8961809874 1.091132998)
(0.03756579757 0.8982622027 1.092334628)
(0.03912702948 0.900436461 1.093589902)
(0.04052070901 0.9026945829 1.094893694)
(0.04174087569 0.9050267339 1.096240163)
(0.04278230295 0.9074230194 1.097623587)
(0.04364052787 0.9098731875 1.099038243)
(0.04431187734 0.9123666883 1.100477815)
(0.04479347914 0.9148929119 1.10193634)
(0.04508326575 0.9174409509 1.103407502)
)


// edges:

54
(
(3 4)
(5 3)
(6 5)
(7 6)
(8 7)
(9 8)
(10 9)
(11 10)
(12 11)
(13 12)
(14 13)
(15 14)
(16 15)
(17 16)
(18 17)
(19 18)
(20 19)
(21 20)
(22 21)
(23 22)
(24 23)
(25 24)
(26 25)
(1 26)
(1 1)
(2 2)
(27 2)
(28 27)
(29 28)
(30 29)
(31 30)
(32 31)
(33 32)
(34 33)
(35 34)
(36 35)
(37 36)
(38 37)
(39 38)
(40 39)
(41 40)
(42 41)
(43 42)
(44 43)
(45 44)
(46 45)
(47 46)
(48 47)
(49 48)
(4 49)
(0 1)
(0 0)
(0 2)
(2 0)
)

// * * * * * * * * * * * * * * * * * * * * * * * * * * * * * * * * * * * * * //


// ************************************************************************* //
