/*--------------------------------*- C++ -*----------------------------------*\
| =========                 |                                                 |
| \\      /  F ield         | OpenFOAM: The Open Source CFD Toolbox           |
|  \\    /   O peration     | Version:  2406                                  |
|   \\  /    A nd           | Website:  www.openfoam.com                      |
|    \\/     M anipulation  |                                                 |
\*---------------------------------------------------------------------------*/
FoamFile
{
    version     2.0;
    format      ascii;
    arch        "LSB;label=32;scalar=64";
    class       featureEdgeMesh;
    location    "constant/triSurface";
    object      wall.eMesh;
}
// * * * * * * * * * * * * * * * * * * * * * * * * * * * * * * * * * * * * * //


// points:

689
(
(0 0.2300000042 0.03833333403)
(0 0.2300000042 3.588879921e-17)
(-4.225031443e-17 -0.2300000042 0.03833333403)
(-4.225031443e-17 -0.2300000042 0)
(0 0.2300000042 0.07666666806)
(-4.225031443e-17 -0.2300000042 0.07666666806)
(0 0.2300000042 0.1150000021)
(-4.225031443e-17 -0.2300000042 0.1150000021)
(0 0.2300000042 0.1533333361)
(-4.225031443e-17 -0.2300000042 0.1533333361)
(0 0.2300000042 0.1916666627)
(-4.225031443e-17 -0.2300000042 0.1916666627)
(0 0.2300000042 0.2300000042)
(-4.225031443e-17 -0.2300000042 0.2300000042)
(0 0.2300000042 0.2683333457)
(-4.225031443e-17 -0.2300000042 0.2683333457)
(0 0.2300000042 0.3066666722)
(-4.225031443e-17 -0.2300000042 0.3066666722)
(0 0.2300000042 0.3449999988)
(-4.225031443e-17 -0.2300000042 0.3449999988)
(0 0.2300000042 0.3833333254)
(-4.225031443e-17 -0.2300000042 0.3833333254)
(0 0.2300000042 0.421666652)
(-4.225031443e-17 -0.2300000042 0.421666652)
(0 0.2300000042 0.4600000083)
(-4.225031443e-17 -0.2300000042 0.4600000083)
(0 0.2300000042 0.4983333349)
(-4.225031443e-17 -0.2300000042 0.4983333349)
(0 0.2300000042 0.5366666913)
(-4.225031443e-17 -0.2300000042 0.5366666913)
(0 0.2300000042 0.5749999881)
(-4.225031443e-17 -0.2300000042 0.5749999881)
(0 0.2300000042 0.6133333445)
(-4.225031443e-17 -0.2300000042 0.6133333445)
(0 0.2300000042 0.6516666412)
(-4.225031443e-17 -0.2300000042 0.6516666412)
(0 0.2300000042 0.6899999976)
(-4.225031443e-17 -0.2300000042 0.6899999976)
(0 0.2300000042 0.728333354)
(-4.225031443e-17 -0.2300000042 0.728333354)
(0 0.2300000042 0.7666666508)
(-4.225031443e-17 -0.2300000042 0.7666666508)
(0 0.2300000042 0.8050000072)
(-4.225031443e-17 -0.2300000042 0.8050000072)
(0 0.2300000042 0.8433333039)
(-4.225031443e-17 -0.2300000042 0.8433333039)
(0 0.2300000042 0.8816666603)
(-4.225031443e-17 -0.2300000042 0.8816666603)
(0 0.2300000042 0.9200000167)
(-4.225031443e-17 -0.2300000042 0.9200000167)
(0 0.2300000042 0.9583333135)
(-4.225031443e-17 -0.2300000042 0.9583333135)
(0 0.2300000042 0.9966666698)
(-4.225031443e-17 -0.2300000042 0.9966666698)
(0 0.2300000042 1.034999967)
(-4.225031443e-17 -0.2300000042 1.034999967)
(0 0.2300000042 1.073333383)
(-4.225031443e-17 -0.2300000042 1.073333383)
(0 0.2300000042 1.111666679)
(-4.225031443e-17 -0.2300000042 1.111666679)
(0 0.2300000042 1.149999976)
(-4.225031443e-17 -0.2300000042 1.149999976)
(0 0.2300000042 1.188333392)
(-4.225031443e-17 -0.2300000042 1.188333392)
(0 0.2300000042 1.226666689)
(-4.225031443e-17 -0.2300000042 1.226666689)
(0 0.2300000042 1.264999986)
(-4.225031443e-17 -0.2300000042 1.264999986)
(0 0.2300000042 1.303333282)
(-4.225031443e-17 -0.2300000042 1.303333282)
(0 0.2300000042 1.341666698)
(-4.225031443e-17 -0.2300000042 1.341666698)
(0 0.2300000042 1.379999995)
(-4.225031443e-17 -0.2300000042 1.379999995)
(0 0.2300000042 1.418333292)
(-4.225031443e-17 -0.2300000042 1.418333292)
(0 0.2300000042 1.456666708)
(-4.225031443e-17 -0.2300000042 1.456666708)
(0 0.2300000042 1.495000005)
(-4.225031443e-17 -0.2300000042 1.495000005)
(0 0.2300000042 1.533333302)
(-4.225031443e-17 -0.2300000042 1.533333302)
(0 0.2300000042 1.571666718)
(-4.225031443e-17 -0.2300000042 1.571666718)
(0 0.2300000042 1.610000014)
(-4.225031443e-17 -0.2300000042 1.610000014)
(0 0.2300000042 1.648333311)
(-4.225031443e-17 -0.2300000042 1.648333311)
(0 0.2300000042 1.686666608)
(-4.225031443e-17 -0.2300000042 1.686666608)
(0 0.2300000042 1.725000024)
(-4.225031443e-17 -0.2300000042 1.725000024)
(0 0.2300000042 1.763333321)
(-4.225031443e-17 -0.2300000042 1.763333321)
(0 0.2300000042 1.801666617)
(-4.225031443e-17 -0.2300000042 1.801666617)
(0 0.2300000042 1.840000033)
(-4.225031443e-17 -0.2300000042 1.840000033)
(0 0.2300000042 1.87833333)
(-4.225031443e-17 -0.2300000042 1.87833333)
(0 0.2300000042 1.916666627)
(-4.225031443e-17 -0.2300000042 1.916666627)
(0 0.2300000042 1.955000043)
(-4.225031443e-17 -0.2300000042 1.955000043)
(0 0.2300000042 1.99333334)
(-4.225031443e-17 -0.2300000042 1.99333334)
(0 0.2300000042 2.031666756)
(-4.225031443e-17 -0.2300000042 2.031666756)
(0 0.2300000042 2.069999933)
(-4.225031443e-17 -0.2300000042 2.069999933)
(0 0.2300000042 2.108333349)
(-4.225031443e-17 -0.2300000042 2.108333349)
(-4.225031443e-17 -0.2300000042 2.146666765)
(-4.225031443e-17 -0.2300000042 2.184999943)
(-4.225031443e-17 -0.2300000042 2.223333359)
(-4.225031443e-17 -0.2300000042 2.261666775)
(-4.225031443e-17 -0.2300000042 2.299999952)
(-4.225031443e-17 -0.2300000042 2.338333368)
(-4.225031443e-17 -0.2300000042 2.376666784)
(-4.225031443e-17 -0.2300000042 2.414999962)
(-4.225031443e-17 -0.2300000042 2.453333378)
(-4.225031443e-17 -0.2300000042 2.491666555)
(0 0.2300000042 2.529999971)
(1.408343814e-17 0.2300000042 2.491666555)
(-4.225031443e-17 -0.2300000042 2.529999971)
(0 0.2300000042 2.568333387)
(-4.225031443e-17 -0.2300000042 2.568333387)
(0 0.2300000042 2.606666565)
(-4.225031443e-17 -0.2300000042 2.606666565)
(0 0.2300000042 2.644999981)
(-4.225031443e-17 -0.2300000042 2.644999981)
(0 0.2300000042 2.683333397)
(-4.225031443e-17 -0.2300000042 2.683333397)
(0 0.2300000042 2.721666574)
(-4.225031443e-17 -0.2300000042 2.721666574)
(0 0.2300000042 2.75999999)
(-4.225031443e-17 -0.2300000042 2.75999999)
(0 0.2300000042 2.798333406)
(-4.225031443e-17 -0.2300000042 2.798333406)
(0 0.2300000042 2.836666584)
(-4.225031443e-17 -0.2300000042 2.836666584)
(0 0.2300000042 2.875)
(-4.225031443e-17 -0.2300000042 2.875)
(0 0.2300000042 2.913333416)
(-4.225031443e-17 -0.2300000042 2.913333416)
(0 0.2300000042 2.951666594)
(-4.225031443e-17 -0.2300000042 2.951666594)
(0 0.2300000042 2.99000001)
(-4.225031443e-17 -0.2300000042 2.99000001)
(0 0.2300000042 3.028333426)
(-4.225031443e-17 -0.2300000042 3.028333426)
(0 0.2300000042 3.066666603)
(-4.225031443e-17 -0.2300000042 3.066666603)
(0 0.2300000042 3.105000019)
(-4.225031443e-17 -0.2300000042 3.105000019)
(0 0.2300000042 3.143333435)
(-4.225031443e-17 -0.2300000042 3.143333435)
(0 0.2300000042 3.181666613)
(-4.225031443e-17 -0.2300000042 3.181666613)
(0 0.2300000042 3.220000029)
(-4.225031443e-17 -0.2300000042 3.220000029)
(0 0.2300000042 3.258333445)
(-4.225031443e-17 -0.2300000042 3.258333445)
(0 0.2300000042 3.296666622)
(-4.225031443e-17 -0.2300000042 3.296666622)
(0 0.2300000042 3.335000038)
(-4.225031443e-17 -0.2300000042 3.335000038)
(0 0.2300000042 3.373333216)
(-4.225031443e-17 -0.2300000042 3.373333216)
(0 0.2300000042 3.411666632)
(-4.225031443e-17 -0.2300000042 3.411666632)
(0 0.2300000042 3.450000048)
(-4.225031443e-17 -0.2300000042 3.450000048)
(0 0.2300000042 3.488333225)
(-4.225031443e-17 -0.2300000042 3.488333225)
(0 0.2300000042 3.526666641)
(-4.225031443e-17 -0.2300000042 3.526666641)
(0 0.2300000042 3.565000057)
(-4.225031443e-17 -0.2300000042 3.565000057)
(0 0.2300000042 3.603333235)
(-4.225031443e-17 -0.2300000042 3.603333235)
(0 0.2300000042 3.641666651)
(-4.225031443e-17 -0.2300000042 3.641666651)
(0 0.2300000042 3.680000067)
(-4.225031443e-17 -0.2300000042 3.680000067)
(0 0.2300000042 3.718333244)
(-4.225031443e-17 -0.2300000042 3.718333244)
(0 0.2300000042 3.75666666)
(-4.225031443e-17 -0.2300000042 3.75666666)
(0 0.2300000042 3.795000076)
(-4.225031443e-17 -0.2300000042 3.795000076)
(0 0.2300000042 3.833333254)
(-4.225031443e-17 -0.2300000042 3.833333254)
(0 0.2300000042 3.87166667)
(-4.225031443e-17 -0.2300000042 3.87166667)
(0 0.2300000042 3.910000086)
(-4.225031443e-17 -0.2300000042 3.910000086)
(0 0.2300000042 3.948333263)
(-4.225031443e-17 -0.2300000042 3.948333263)
(0 0.2300000042 3.986666679)
(-4.225031443e-17 -0.2300000042 3.986666679)
(0 0.2300000042 4.025000095)
(-4.225031443e-17 -0.2300000042 4.025000095)
(0 0.2300000042 4.063333511)
(-4.225031443e-17 -0.2300000042 4.063333511)
(0 0.2300000042 4.101666451)
(-4.225031443e-17 -0.2300000042 4.101666451)
(0 0.2300000042 4.139999866)
(-4.225031443e-17 -0.2300000042 4.139999866)
(0 0.2300000042 4.178333282)
(-4.225031443e-17 -0.2300000042 4.178333282)
(0 0.2300000042 4.216666698)
(-4.225031443e-17 -0.2300000042 4.216666698)
(0 0.2300000042 4.255000114)
(-4.225031443e-17 -0.2300000042 4.255000114)
(0 0.2300000042 4.29333353)
(-4.225031443e-17 -0.2300000042 4.29333353)
(0 0.2300000042 4.33166647)
(-4.225031443e-17 -0.2300000042 4.33166647)
(0 0.2300000042 4.369999886)
(-4.225031443e-17 -0.2300000042 4.369999886)
(0 0.2300000042 4.408333302)
(-4.225031443e-17 -0.2300000042 4.408333302)
(0 0.2300000042 4.446666718)
(-4.225031443e-17 -0.2300000042 4.446666718)
(0 0.2300000042 4.485000134)
(-4.225031443e-17 -0.2300000042 4.485000134)
(0 0.2300000042 4.523333549)
(-4.225031443e-17 -0.2300000042 4.523333549)
(0 0.2300000042 4.561666489)
(-4.225031443e-17 -0.2300000042 4.561666489)
(0 0.2300000042 4.599999905)
(-4.225031443e-17 -0.2300000042 4.599999905)
(0 0.2300000042 4.638333321)
(-4.225031443e-17 -0.2300000042 4.638333321)
(0 0.2300000042 4.676666737)
(-4.225031443e-17 -0.2300000042 4.676666737)
(0 0.2300000042 4.715000153)
(-4.225031443e-17 -0.2300000042 4.715000153)
(0 0.2300000042 4.753333569)
(-4.225031443e-17 -0.2300000042 4.753333569)
(0 0.2300000042 4.791666508)
(-4.225031443e-17 -0.2300000042 4.791666508)
(0 0.2300000042 4.829999924)
(-4.225031443e-17 -0.2300000042 4.829999924)
(0 0.2300000042 4.86833334)
(-4.225031443e-17 -0.2300000042 4.86833334)
(0 0.2300000042 4.906666756)
(-4.225031443e-17 -0.2300000042 4.906666756)
(0 0.2300000042 4.945000172)
(-4.225031443e-17 -0.2300000042 4.945000172)
(0 0.2300000042 4.983333111)
(-4.225031443e-17 -0.2300000042 4.983333111)
(0 0.2300000042 5.021666527)
(-4.225031443e-17 -0.2300000042 5.021666527)
(0 0.2300000042 5.059999943)
(-4.225031443e-17 -0.2300000042 5.059999943)
(0 0.2300000042 5.098333359)
(-4.225031443e-17 -0.2300000042 5.098333359)
(0 0.2300000042 5.136666775)
(-4.225031443e-17 -0.2300000042 5.136666775)
(0 0.2300000042 5.175000191)
(-4.225031443e-17 -0.2300000042 5.175000191)
(0 0.2300000042 5.21333313)
(-4.225031443e-17 -0.2300000042 5.21333313)
(0 0.2300000042 5.251666546)
(-4.225031443e-17 -0.2300000042 5.251666546)
(0 0.2300000042 5.289999962)
(-4.225031443e-17 -0.2300000042 5.289999962)
(0 0.2300000042 5.328333378)
(-4.225031443e-17 -0.2300000042 5.328333378)
(0 0.2300000042 5.366666794)
(-4.225031443e-17 -0.2300000042 5.366666794)
(0 0.2300000042 5.40500021)
(-4.225031443e-17 -0.2300000042 5.40500021)
(0 0.2300000042 5.443333149)
(-4.225031443e-17 -0.2300000042 5.443333149)
(0 0.2300000042 5.481666565)
(-4.225031443e-17 -0.2300000042 5.481666565)
(0 0.2300000042 5.519999981)
(-4.225031443e-17 -0.2300000042 5.519999981)
(0 0.2300000042 5.558333397)
(-4.225031443e-17 -0.2300000042 5.558333397)
(0 0.2300000042 5.596666813)
(-4.225031443e-17 -0.2300000042 5.596666813)
(0 0.2300000042 5.635000229)
(-4.225031443e-17 -0.2300000042 5.635000229)
(0 0.2300000042 5.673333168)
(-4.225031443e-17 -0.2300000042 5.673333168)
(0 0.2300000042 5.711666584)
(-4.225031443e-17 -0.2300000042 5.711666584)
(0 0.2300000042 5.75)
(-4.225031443e-17 -0.2300000042 5.75)
(0 0.2300000042 5.788333416)
(-4.225031443e-17 -0.2300000042 5.788333416)
(0 0.2300000042 5.826666832)
(-4.225031443e-17 -0.2300000042 5.826666832)
(0 0.2300000042 5.864999771)
(-4.225031443e-17 -0.2300000042 5.864999771)
(0 0.2300000042 5.903333187)
(-4.225031443e-17 -0.2300000042 5.903333187)
(0 0.2300000042 5.941666603)
(-4.225031443e-17 -0.2300000042 5.941666603)
(0 0.2300000042 5.980000019)
(-4.225031443e-17 -0.2300000042 5.980000019)
(0 0.2300000042 6.018333435)
(-4.225031443e-17 -0.2300000042 6.018333435)
(0 0.2300000042 6.056666851)
(-4.225031443e-17 -0.2300000042 6.056666851)
(0 0.2300000042 6.09499979)
(-4.225031443e-17 -0.2300000042 6.09499979)
(0 0.2300000042 6.133333206)
(-4.225031443e-17 -0.2300000042 6.133333206)
(0 0.2300000042 6.171666622)
(-4.225031443e-17 -0.2300000042 6.171666622)
(0 0.2300000042 6.210000038)
(-4.225031443e-17 -0.2300000042 6.210000038)
(0 0.2300000042 6.248333454)
(-4.225031443e-17 -0.2300000042 6.248333454)
(0 0.2300000042 6.28666687)
(-4.225031443e-17 -0.2300000042 6.28666687)
(0 0.2300000042 6.324999809)
(-4.225031443e-17 -0.2300000042 6.324999809)
(0 0.2300000042 6.363333225)
(-4.225031443e-17 -0.2300000042 6.363333225)
(0 0.2300000042 6.401666641)
(-4.225031443e-17 -0.2300000042 6.401666641)
(0 0.2300000042 6.440000057)
(-4.225031443e-17 -0.2300000042 6.440000057)
(0 0.2300000042 6.478333473)
(-4.225031443e-17 -0.2300000042 6.478333473)
(0 0.2300000042 6.516666889)
(-4.225031443e-17 -0.2300000042 6.516666889)
(0 0.2300000042 6.554999828)
(-4.225031443e-17 -0.2300000042 6.554999828)
(0 0.2300000042 6.593333244)
(-4.225031443e-17 -0.2300000042 6.593333244)
(0 0.2300000042 6.63166666)
(-4.225031443e-17 -0.2300000042 6.63166666)
(0 0.2300000042 6.670000076)
(-4.225031443e-17 -0.2300000042 6.670000076)
(0 0.2300000042 6.708333492)
(-4.225031443e-17 -0.2300000042 6.708333492)
(0 0.2300000042 6.746666431)
(-4.225031443e-17 -0.2300000042 6.746666431)
(0 0.2300000042 6.784999847)
(-4.225031443e-17 -0.2300000042 6.784999847)
(0 0.2300000042 6.823333263)
(-4.225031443e-17 -0.2300000042 6.823333263)
(0 0.2300000042 6.861666679)
(-4.225031443e-17 -0.2300000042 6.861666679)
(0 0.2300000042 6.900000095)
(-4.225031443e-17 -0.2300000042 6.900000095)
(0.01452263538 0.2295410484 2.215230227)
(-8.299431476e-18 0.2300000042 2.209640026)
(3.851859889e-34 0.2300000042 2.390360117)
(1.734723476e-18 0.2271264493 2.243523359)
(3.851859889e-34 0.2451901436 2.364049911)
(-8.299431476e-18 0.2435598522 2.18615365)
(3.851859889e-34 0.2603802979 2.337739706)
(-8.299431476e-18 0.2571197152 2.162667274)
(3.851859889e-34 0.2755704522 2.311429739)
(-8.299431476e-18 0.2706795633 2.139180899)
(3.851859889e-34 0.2907605767 2.285119534)
(-8.299431476e-18 0.2842394114 2.115694523)
(3.851859889e-34 0.305950731 2.258809566)
(-8.299431476e-18 0.2977992594 2.092208147)
(3.851859889e-34 0.3211408854 2.232499361)
(-8.299431476e-18 0.3113591075 2.068721771)
(3.851859889e-34 0.3363310397 2.206189156)
(-8.299431476e-18 0.3249189854 2.045235395)
(3.851859889e-34 0.3515211642 2.179879189)
(-8.299431476e-18 0.3384788334 2.021749258)
(3.851859889e-34 0.3667113185 2.153568983)
(-8.299431476e-18 0.3520386815 1.998262763)
(3.851859889e-34 0.3819014728 2.127259016)
(-8.299431476e-18 0.3655985296 1.974776387)
(3.851859889e-34 0.3970915973 2.100948811)
(-8.299431476e-18 0.3791583776 1.951290131)
(3.851859889e-34 0.4122817516 2.074638844)
(-8.299431476e-18 0.3927182555 1.927803755)
(3.851859889e-34 0.4274719059 2.048328638)
(-8.299431476e-18 0.4062781036 1.904317379)
(3.851859889e-34 0.4426620603 2.022018433)
(-8.299431476e-18 0.4198379517 1.880831003)
(3.851859889e-34 0.4578521848 1.995708466)
(-8.299431476e-18 0.4333977997 1.857344627)
(3.851859889e-34 0.4730423391 1.96939826)
(-8.299431476e-18 0.4469576478 1.833858371)
(3.851859889e-34 0.4882324934 1.943088174)
(-8.299431476e-18 0.4605175257 1.810371995)
(3.851859889e-34 0.5034226179 1.916778088)
(-8.299431476e-18 0.4740773737 1.786885619)
(3.851859889e-34 0.518612802 1.890468001)
(-8.299431476e-18 0.4876372218 1.763399243)
(3.851859889e-34 0.5338029265 1.864157915)
(-8.299431476e-18 0.5011970997 1.739912868)
(3.851859889e-34 0.5489930511 1.837847829)
(-8.299431476e-18 0.514756918 1.716426492)
(3.851859889e-34 0.5641832352 1.811537623)
(-8.299431476e-18 0.5283167958 1.692940235)
(3.851859889e-34 0.5793733597 1.785227537)
(-8.299431476e-18 0.5418766141 1.669453859)
(3.851859889e-34 0.5945634842 1.758917451)
(-8.299431476e-18 0.555436492 1.645967484)
(3.851859889e-34 0.6097536683 1.732607365)
(-8.299431476e-18 0.5689963102 1.622481108)
(3.851859889e-34 0.6249437928 1.706297278)
(-8.299431476e-18 0.5825561881 1.598994732)
(3.851859889e-34 0.6401339769 1.679987192)
(-8.299431476e-18 0.596116066 1.575508356)
(3.851859889e-34 0.6553241014 1.653677106)
(-8.299431476e-18 0.6096758842 1.552022099)
(3.851859889e-34 0.670514226 1.6273669)
(-8.299431476e-18 0.6232357621 1.528535724)
(3.851859889e-34 0.6857044101 1.601056814)
(-8.299431476e-18 0.6367955804 1.505049348)
(3.851859889e-34 0.7008945346 1.574746728)
(-8.299431476e-18 0.6503554583 1.481562972)
(3.851859889e-34 0.7160846591 1.548436642)
(-8.299431476e-18 0.6639153361 1.458076596)
(3.851859889e-34 0.7312748432 1.522126555)
(-8.299431476e-18 0.6774751544 1.43459022)
(3.851859889e-34 0.7464649677 1.495816469)
(-8.299431476e-18 0.6910350323 1.411103964)
(3.851859889e-34 0.7616551518 1.469506264)
(-8.299431476e-18 0.7045948505 1.387617588)
(3.851859889e-34 0.7768452764 1.443196177)
(-8.299431476e-18 0.7181547284 1.364131212)
(3.851859889e-34 0.7920354009 1.416886091)
(-8.299431476e-18 0.7317146063 1.340644836)
(3.851859889e-34 0.807225585 1.390576005)
(-8.299431476e-18 0.7452744246 1.317158461)
(3.851859889e-34 0.8224157095 1.364265919)
(-8.299431476e-18 0.7588343024 1.293672085)
(3.851859889e-34 0.837605834 1.337955832)
(-8.299431476e-18 0.7723941207 1.270185828)
(3.851859889e-34 0.8527960181 1.311645627)
(-8.299431476e-18 0.7859539986 1.246699452)
(3.851859889e-34 0.8679861426 1.285335541)
(-8.299431476e-18 0.7995138764 1.223213077)
(3.851859889e-34 0.8831762671 1.259025455)
(-8.299431476e-18 0.8130736947 1.199726701)
(3.851859889e-34 0.8983664513 1.232715368)
(-8.299431476e-18 0.8266335726 1.176240325)
(3.851859889e-34 0.9135565758 1.206405282)
(-8.299431476e-18 0.8401933908 1.152754068)
(3.851859889e-34 0.9287467599 1.180095196)
(-8.299431476e-18 0.8537532687 1.129267693)
(3.851859889e-34 0.9439368844 1.15378499)
(-8.299431476e-18 0.8673131466 1.105781317)
(3.851859889e-34 0.9591270089 1.127474904)
(-8.299431476e-18 0.8808729649 1.082294941)
(0 0.229412958 2.391005039)
(0.2300000042 -5.633375257e-17 0)
(0.2295075506 0.01504271943 0)
(0.2280323207 0.03002102487 0)
(0.2255806178 0.04487077519 0)
(0.2221629471 0.05952838063 0)
(0.2177939266 0.07393107563 0)
(0.2124922872 0.08801718801 0)
(0.2062807232 0.1017263979 0)
(0.1991858482 0.1150000021 0)
(0.1912380159 0.1277811527 0)
(0.1824712753 0.1400151253 0)
(0.1729231626 0.1516495347 0)
(0.1626345664 0.1626345664 0)
(0.1516495347 0.1729231626 0)
(0.1400151253 0.1824712753 0)
(0.1277811527 0.1912380159 0)
(0.1150000021 0.1991858482 0)
(0.1017263979 0.2062807232 0)
(0.08801718801 0.2124922872 0)
(0.07393107563 0.2177939266 0)
(0.05952838063 0.2221629471 0)
(0.04487077519 0.2255806178 0)
(0.03002102487 0.2280323207 0)
(0.01504271943 0.2295075506 0)
(0.01504271943 -0.2295075506 0)
(0.03002102487 -0.2280323207 0)
(0.04487077519 -0.2255806178 0)
(0.05952838063 -0.2221629471 0)
(0.07393107563 -0.2177939266 0)
(0.08801718801 -0.2124922872 0)
(0.1017263979 -0.2062807232 0)
(0.1150000021 -0.1991858482 0)
(0.1277811527 -0.1912380159 0)
(0.1400151253 -0.1824712753 0)
(0.1516495347 -0.1729231626 0)
(0.1626345664 -0.1626345664 0)
(0.1729231626 -0.1516495347 0)
(0.1824712753 -0.1400151253 0)
(0.1912380159 -0.1277811527 0)
(0.1991858482 -0.1150000021 0)
(0.2062807232 -0.1017263979 0)
(0.2124922872 -0.08801718801 0)
(0.2177939266 -0.07393107563 0)
(0.2221629471 -0.05952838063 0)
(0.2255806178 -0.04487077519 0)
(0.2280323207 -0.03002102487 0)
(0.2295075506 -0.01504271943 0)
(0.2295075506 0.01504271943 6.900000095)
(0.2300000042 -5.633375257e-17 6.900000095)
(0.2280323207 0.03002102487 6.900000095)
(0.2255806178 0.04487077519 6.900000095)
(0.2221629471 0.05952838063 6.900000095)
(0.2177939266 0.07393107563 6.900000095)
(0.2124922872 0.08801718801 6.900000095)
(0.2062807232 0.1017263979 6.900000095)
(0.1991858482 0.1150000021 6.900000095)
(0.1912380159 0.1277811527 6.900000095)
(0.1824712753 0.1400151253 6.900000095)
(0.1729231626 0.1516495347 6.900000095)
(0.1626345664 0.1626345664 6.900000095)
(0.1516495347 0.1729231626 6.900000095)
(0.1400151253 0.1824712753 6.900000095)
(0.1277811527 0.1912380159 6.900000095)
(0.1150000021 0.1991858482 6.900000095)
(0.1017263979 0.2062807232 6.900000095)
(0.08801718801 0.2124922872 6.900000095)
(0.07393107563 0.2177939266 6.900000095)
(0.05952838063 0.2221629471 6.900000095)
(0.04487077519 0.2255806178 6.900000095)
(0.03002102487 0.2280323207 6.900000095)
(0.01504271943 0.2295075506 6.900000095)
(0.01504271943 -0.2295075506 6.900000095)
(0.03002102487 -0.2280323207 6.900000095)
(0.04487077519 -0.2255806178 6.900000095)
(0.05952838063 -0.2221629471 6.900000095)
(0.07393107563 -0.2177939266 6.900000095)
(0.08801718801 -0.2124922872 6.900000095)
(0.1017263979 -0.2062807232 6.900000095)
(0.1150000021 -0.1991858482 6.900000095)
(0.1277811527 -0.1912380159 6.900000095)
(0.1400151253 -0.1824712753 6.900000095)
(0.1516495347 -0.1729231626 6.900000095)
(0.1626345664 -0.1626345664 6.900000095)
(0.1729231626 -0.1516495347 6.900000095)
(0.1824712753 -0.1400151253 6.900000095)
(0.1912380159 -0.1277811527 6.900000095)
(0.1991858482 -0.1150000021 6.900000095)
(0.2062807232 -0.1017263979 6.900000095)
(0.2124922872 -0.08801718801 6.900000095)
(0.2177939266 -0.07393107563 6.900000095)
(0.2221629471 -0.05952838063 6.900000095)
(0.2255806178 -0.04487077519 6.900000095)
(0.2280323207 -0.03002102487 6.900000095)
(0.2295075506 -0.01504271943 6.900000095)
(-8.67361738e-19 0.2288297713 2.391305447)
(0 0.2282527536 2.391290665)
(0 0.2276842296 2.390986443)
(1.734723476e-18 0.2271264493 2.390415668)
(0 0.2265815884 2.389598608)
(0 0.2260518521 2.388552189)
(0 0.2255393565 2.38729167)
(0 0.2250461429 2.385829687)
(0 0.2245742083 2.384177446)
(3.469446952e-18 0.2241254896 2.382344007)
(0 0.2237018049 2.380337238)
(0 0.2233049423 2.378163099)
(0 0.2229365706 2.375827312)
(0 0.2225982249 2.373333931)
(0 0.2222913951 2.370686054)
(0 0.2220173776 2.367886305)
(0 0.2217773646 2.36493659)
(0 0.2215724438 2.361838102)
(6.938893904e-18 0.2214034945 2.358591795)
(0 0.2212713063 2.355198383)
(0 0.2211764604 2.351658106)
(0 0.2211193591 2.347970724)
(0 0.2211003155 2.344136238)
(0 0.2211193591 2.340154648)
(0 0.2211764604 2.336025238)
(0 0.2212713063 2.33174777)
(6.938893904e-18 0.2214034945 2.327322245)
(0 0.2215724438 2.322747946)
(0 0.2217773646 2.318025112)
(0 0.2220173776 2.313153267)
(0 0.2222913951 2.308133125)
(0 0.2225982249 2.302964926)
(0 0.2229365706 2.297648907)
(0 0.2233049423 2.292186737)
(0 0.2237018049 2.286579609)
(3.469446952e-18 0.2241254896 2.280829191)
(0 0.2245742083 2.274938107)
(0 0.2250461429 2.268909693)
(0 0.2255393565 2.262748241)
(0 0.2260518521 2.256458759)
(0 0.2265815884 2.250047684)
(1.734723476e-18 0.2271264493 2.248952627)
(1.734723476e-18 0.2271264493 2.254381657)
(0 0.2276123613 2.260616541)
(0 0.2280940861 2.269443989)
(0 0.2285726666 2.282823324)
(0 0.2290491611 2.305357218)
(0 0.2295245975 2.351016998)
(0.04508326575 0.9225590229 1.106362343)
(0.04518000036 0.9200000167 1.104884982)
(0.04479347914 0.9251071215 1.107833505)
(0.04431187734 0.9276332855 1.10929203)
(0.04364052787 0.9301268458 1.110731721)
(0.04278230295 0.9325769544 1.112146258)
(0.04174087569 0.9349732399 1.113529801)
(0.04052070901 0.9373054504 1.11487627)
(0.03912702948 0.9395635128 1.116179943)
(0.03756579757 0.9417378306 1.117435217)
(0.0358437039 0.943819046 1.118636847)
(0.03396812081 0.9457982183 1.119779587)
(0.03194708377 0.9476670027 1.120858431)
(0.02978924476 0.9494172335 1.121868968)
(0.02750384063 0.9510415792 1.122806787)
(0.0251006633 0.9525329471 1.123667836)
(0.02259000018 0.9538850188 1.124448419)
(0.01998260245 0.9550919533 1.125145316)
(0.01728963666 0.956148684 1.125755429)
(0.01452263538 0.9570505619 1.126276135)
(0.0116934441 0.9577938318 1.12670517)
(0.008814181201 0.9583752155 1.127040863)
(0.005897173192 0.9587922692 1.127281666)
(0.002954913303 0.9590432644 1.127426624)
(0.002954913303 0.880956769 1.08234334)
(0.005897173192 0.8812077045 1.082488179)
(0.008814181201 0.8816247582 1.082728982)
(0.0116934441 0.8822062016 1.083064675)
(0.01452263538 0.8829494119 1.083493829)
(0.01728963666 0.8838513494 1.084014535)
(0.01998260245 0.8849080205 1.084624529)
(0.02259000018 0.8861150146 1.085321426)
(0.0251006633 0.8874670863 1.086102009)
(0.02750384063 0.8889584541 1.086963058)
(0.02978924476 0.8905827403 1.087900877)
(0.03194708377 0.8923330307 1.088911414)
(0.03396812081 0.8942017555 1.089990377)
(0.0358437039 0.8961809874 1.091132998)
(0.03756579757 0.8982622027 1.092334628)
(0.03912702948 0.900436461 1.093589902)
(0.04052070901 0.9026945829 1.094893694)
(0.04174087569 0.9050267339 1.096240163)
(0.04278230295 0.9074230194 1.097623587)
(0.04364052787 0.9098731875 1.099038243)
(0.04431187734 0.9123666883 1.100477815)
(0.04479347914 0.9148929119 1.10193634)
(0.04508326575 0.9174409509 1.103407502)
(0.002954913303 0.2299810201 2.390199423)
(0.005897173192 0.2299243808 2.389717817)
(0.008814181201 0.2298310399 2.388916492)
(0.0116934441 0.2297025472 2.387796164)
(0.01452263538 0.2295410484 2.386359453)
(0.01728963666 0.2293492258 2.384608984)
(0.01998260245 0.2291302979 2.382547855)
(0.02259000018 0.2288879454 2.38018012)
(0.0251006633 0.2286262363 2.377511024)
(0.02750384063 0.2283495963 2.374546051)
(0.02978924476 0.2280627191 2.371291637)
(0.03194708377 0.2277704626 2.36775589)
(0.03396812081 0.2274778336 2.363946915)
(0.0358437039 0.2271898538 2.359874964)
(0.03756579757 0.2269114554 2.355550766)
(0.03912702948 0.2266474664 2.350986719)
(0.04052070901 0.2264024615 2.346196413)
(0.04174087569 0.2261806726 2.34119463)
(0.04278230295 0.2259860039 2.33599782)
(0.04364052787 0.2258218378 2.330623627)
(0.04431187734 0.2256910652 2.3250916)
(0.04479347914 0.2255959809 2.319422245)
(0.04508326575 0.2255382389 2.313637733)
(0.04518000036 0.2255188823 2.307761431)
(0.04508326575 0.2255382389 2.301818132)
(0.04479347914 0.2255959809 2.295833588)
(0.04431187734 0.2256910652 2.289834976)
(0.04364052787 0.2258218378 2.283849955)
(0.04278230295 0.2259860039 2.277907133)
(0.04174087569 0.2261806726 2.272036076)
(0.04052070901 0.2264024615 2.266265869)
(0.03912702948 0.2266474664 2.260626793)
(0.03756579757 0.2269114554 2.255148172)
(0.0358437039 0.2271898538 2.249859571)
(0.03396812081 0.2274778336 2.244790077)
(0.03194708377 0.2277704626 2.239967585)
(0.02978924476 0.2280627191 2.235419273)
(0.02750384063 0.2283495963 2.231171131)
(0.0251006633 0.2286262363 2.227247715)
(0.02259000018 0.2288879454 2.223672152)
(0.01998260245 0.2291302979 2.220464945)
(0.01728963666 0.2293492258 2.217645407)
(0.0116934441 0.2297025472 2.213234186)
(0.008814181201 0.2298310399 2.211668968)
(0.005897173192 0.2299243808 2.210544109)
(0.002954913303 0.2299810201 2.209866285)
)


// edges:

1830
(
(643 355)
(644 643)
(645 644)
(646 645)
(647 646)
(648 647)
(649 648)
(650 649)
(651 650)
(652 651)
(653 652)
(654 653)
(655 654)
(656 655)
(657 656)
(658 657)
(659 658)
(660 659)
(661 660)
(662 661)
(663 662)
(664 663)
(665 664)
(666 665)
(667 666)
(668 667)
(669 668)
(670 669)
(671 670)
(672 671)
(673 672)
(674 673)
(675 674)
(676 675)
(677 676)
(678 677)
(679 678)
(680 679)
(681 680)
(682 681)
(683 682)
(684 683)
(356 353)
(353 684)
(685 353)
(686 685)
(687 686)
(688 687)
(354 688)
(454 455)
(455 456)
(456 457)
(457 458)
(458 459)
(459 460)
(460 461)
(461 462)
(462 463)
(463 464)
(464 465)
(465 466)
(466 467)
(467 468)
(468 469)
(469 470)
(470 471)
(471 472)
(472 473)
(473 474)
(474 475)
(475 476)
(476 477)
(477 1)
(3 3)
(3 478)
(478 479)
(479 480)
(480 481)
(481 482)
(482 483)
(483 484)
(484 485)
(485 486)
(486 487)
(487 488)
(488 489)
(489 490)
(490 491)
(491 492)
(492 493)
(493 494)
(494 495)
(495 496)
(496 497)
(497 498)
(498 499)
(499 500)
(500 454)
(501 502)
(503 501)
(504 503)
(505 504)
(506 505)
(507 506)
(508 507)
(509 508)
(510 509)
(511 510)
(512 511)
(513 512)
(514 513)
(515 514)
(516 515)
(517 516)
(518 517)
(519 518)
(520 519)
(521 520)
(522 521)
(523 522)
(524 523)
(351 524)
(351 351)
(525 352)
(526 525)
(527 526)
(528 527)
(529 528)
(530 529)
(531 530)
(532 531)
(533 532)
(534 533)
(535 534)
(536 535)
(537 536)
(538 537)
(539 538)
(540 539)
(541 540)
(542 541)
(543 542)
(544 543)
(545 544)
(546 545)
(547 546)
(502 547)
(453 548)
(548 549)
(549 550)
(550 551)
(551 552)
(552 553)
(553 554)
(554 555)
(555 556)
(556 557)
(557 558)
(558 559)
(559 560)
(560 561)
(561 562)
(562 563)
(563 564)
(564 565)
(565 566)
(566 567)
(567 568)
(568 569)
(569 570)
(570 571)
(571 572)
(572 573)
(573 574)
(574 575)
(575 576)
(576 577)
(577 578)
(578 579)
(579 580)
(580 581)
(581 582)
(582 583)
(583 584)
(584 585)
(585 586)
(586 587)
(587 588)
(588 356)
(356 589)
(589 590)
(590 591)
(591 592)
(592 593)
(593 594)
(594 595)
(595 123)
(596 597)
(598 596)
(599 598)
(600 599)
(601 600)
(602 601)
(603 602)
(604 603)
(605 604)
(606 605)
(607 606)
(608 607)
(609 608)
(610 609)
(611 610)
(612 611)
(613 612)
(614 613)
(615 614)
(616 615)
(617 616)
(618 617)
(619 618)
(451 619)
(451 451)
(620 452)
(621 620)
(622 621)
(623 622)
(624 623)
(625 624)
(626 625)
(627 626)
(628 627)
(629 628)
(630 629)
(631 630)
(632 631)
(633 632)
(634 633)
(635 634)
(636 635)
(637 636)
(638 637)
(639 638)
(640 639)
(641 640)
(642 641)
(597 642)
(1 0)
(0 0)
(1 1)
(2 2)
(2 2)
(2 2)
(3 2)
(2 3)
(0 4)
(4 4)
(5 5)
(5 5)
(5 5)
(2 5)
(5 2)
(4 6)
(6 6)
(7 7)
(7 7)
(7 7)
(5 7)
(7 5)
(6 8)
(8 8)
(9 9)
(9 9)
(9 9)
(7 9)
(9 7)
(8 10)
(10 10)
(11 11)
(11 11)
(11 11)
(9 11)
(11 9)
(10 12)
(12 12)
(13 13)
(13 13)
(13 13)
(11 13)
(13 11)
(12 14)
(14 14)
(15 15)
(15 15)
(15 15)
(13 15)
(15 13)
(14 16)
(16 16)
(17 17)
(17 17)
(17 17)
(15 17)
(17 15)
(16 18)
(18 18)
(19 19)
(19 19)
(19 19)
(17 19)
(19 17)
(18 20)
(20 20)
(21 21)