/*--------------------------------*- C++ -*----------------------------------*\
| =========                 |                                                 |
| \\      /  F ield         | OpenFOAM: The Open Source CFD Toolbox           |
|  \\    /   O peration     | Version:  2406                                  |
|   \\  /    A nd           | Website:  www.openfoam.com                      |
|    \\/     M anipulation  |                                                 |
\*---------------------------------------------------------------------------*/
FoamFile
{
    version     2.0;
    format      ascii;
    arch        "LSB;label=32;scalar=64";
    class       featureEdgeMesh;
    location    "constant/triSurface";
    object      wall.eMesh;
}
// * * * * * * * * * * * * * * * * * * * * * * * * * * * * * * * * * * * * * //


// points:

760
(
(0 0.2300000042 0.03833333403)
(0 0.2300000042 3.588879921e-17)
(-4.225031443e-17 -0.2300000042 0.03833333403)
(-4.225031443e-17 -0.2300000042 0)
(0 0.2300000042 0.07666666806)
(-4.225031443e-17 -0.2300000042 0.07666666806)
(0 0.2300000042 0.1150000021)
(-4.225031443e-17 -0.2300000042 0.1150000021)
(0 0.2300000042 0.1533333361)
(-4.225031443e-17 -0.2300000042 0.1533333361)
(0 0.2300000042 0.1916666627)
(-4.225031443e-17 -0.2300000042 0.1916666627)
(0 0.2300000042 0.2300000042)
(-4.225031443e-17 -0.2300000042 0.2300000042)
(0 0.2300000042 0.2683333457)
(-4.225031443e-17 -0.2300000042 0.2683333457)
(0 0.2300000042 0.3066666722)
(-4.225031443e-17 -0.2300000042 0.3066666722)
(0 0.2300000042 0.3449999988)
(-4.225031443e-17 -0.2300000042 0.3449999988)
(0 0.2300000042 0.3833333254)
(-4.225031443e-17 -0.2300000042 0.3833333254)
(0 0.2300000042 0.421666652)
(-4.225031443e-17 -0.2300000042 0.421666652)
(0 0.2300000042 0.4600000083)
(-4.225031443e-17 -0.2300000042 0.4600000083)
(0 0.2300000042 0.4983333349)
(-4.225031443e-17 -0.2300000042 0.4983333349)
(0 0.2300000042 0.5366666913)
(-4.225031443e-17 -0.2300000042 0.5366666913)
(0 0.2300000042 0.5749999881)
(-4.225031443e-17 -0.2300000042 0.5749999881)
(0 0.2300000042 0.6133333445)
(-4.225031443e-17 -0.2300000042 0.6133333445)
(0 0.2300000042 0.6516666412)
(-4.225031443e-17 -0.2300000042 0.6516666412)
(0 0.2300000042 0.6899999976)
(-4.225031443e-17 -0.2300000042 0.6899999976)
(0 0.2300000042 0.728333354)
(-4.225031443e-17 -0.2300000042 0.728333354)
(0 0.2300000042 0.7666666508)
(-4.225031443e-17 -0.2300000042 0.7666666508)
(0 0.2300000042 0.8050000072)
(-4.225031443e-17 -0.2300000042 0.8050000072)
(0 0.2300000042 0.8433333039)
(-4.225031443e-17 -0.2300000042 0.8433333039)
(0 0.2300000042 0.8816666603)
(-4.225031443e-17 -0.2300000042 0.8816666603)
(0 0.2300000042 0.9200000167)
(-4.225031443e-17 -0.2300000042 0.9200000167)
(0 0.2300000042 0.9583333135)
(-4.225031443e-17 -0.2300000042 0.9583333135)
(0 0.2300000042 0.9966666698)
(-4.225031443e-17 -0.2300000042 0.9966666698)
(0 0.2300000042 1.034999967)
(-4.225031443e-17 -0.2300000042 1.034999967)
(0 0.2300000042 1.073333383)
(-4.225031443e-17 -0.2300000042 1.073333383)
(0 0.2300000042 1.111666679)
(-4.225031443e-17 -0.2300000042 1.111666679)
(0 0.2300000042 1.149999976)
(-4.225031443e-17 -0.2300000042 1.149999976)
(0 0.2300000042 1.188333392)
(-4.225031443e-17 -0.2300000042 1.188333392)
(0 0.2300000042 1.226666689)
(-4.225031443e-17 -0.2300000042 1.226666689)
(0 0.2300000042 1.264999986)
(-4.225031443e-17 -0.2300000042 1.264999986)
(0 0.2300000042 1.303333282)
(-4.225031443e-17 -0.2300000042 1.303333282)
(0 0.2300000042 1.341666698)
(-4.225031443e-17 -0.2300000042 1.341666698)
(0 0.2300000042 1.379999995)
(-4.225031443e-17 -0.2300000042 1.379999995)
(0 0.2300000042 1.418333292)
(-4.225031443e-17 -0.2300000042 1.418333292)
(0 0.2300000042 1.456666708)
(-4.225031443e-17 -0.2300000042 1.456666708)
(0 0.2300000042 1.495000005)
(-4.225031443e-17 -0.2300000042 1.495000005)
(0 0.2300000042 1.533333302)
(-4.225031443e-17 -0.2300000042 1.533333302)
(0 0.2300000042 1.571666718)
(-4.225031443e-17 -0.2300000042 1.571666718)
(0 0.2300000042 1.610000014)
(-4.225031443e-17 -0.2300000042 1.610000014)
(0 0.2300000042 1.648333311)
(-4.225031443e-17 -0.2300000042 1.648333311)
(0 0.2300000042 1.686666608)
(-4.225031443e-17 -0.2300000042 1.686666608)
(0 0.2300000042 1.725000024)
(-4.225031443e-17 -0.2300000042 1.725000024)
(0 0.2300000042 1.763333321)
(-4.225031443e-17 -0.2300000042 1.763333321)
(0 0.2300000042 1.801666617)
(-4.225031443e-17 -0.2300000042 1.801666617)
(0 0.2300000042 1.840000033)
(-4.225031443e-17 -0.2300000042 1.840000033)
(0 0.2300000042 1.87833333)
(-4.225031443e-17 -0.2300000042 1.87833333)
(0 0.2300000042 1.916666627)
(-4.225031443e-17 -0.2300000042 1.916666627)
(0 0.2300000042 1.955000043)
(-4.225031443e-17 -0.2300000042 1.955000043)
(0 0.2300000042 1.99333334)
(-4.225031443e-17 -0.2300000042 1.99333334)
(0 0.2300000042 2.031666756)
(-4.225031443e-17 -0.2300000042 2.031666756)
(-4.225031443e-17 -0.2300000042 2.069999933)
(-4.225031443e-17 -0.2300000042 2.108333349)
(-4.225031443e-17 -0.2300000042 2.146666765)
(-4.225031443e-17 -0.2300000042 2.184999943)
(-4.225031443e-17 -0.2300000042 2.223333359)
(-4.225031443e-17 -0.2300000042 2.261666775)
(-4.225031443e-17 -0.2300000042 2.299999952)
(-4.225031443e-17 -0.2300000042 2.338333368)
(-4.225031443e-17 -0.2300000042 2.376666784)
(-4.225031443e-17 -0.2300000042 2.414999962)
(-4.225031443e-17 -0.2300000042 2.453333378)
(-4.225031443e-17 -0.2300000042 2.491666555)
(-4.225031443e-17 -0.2300000042 2.529999971)
(-4.225031443e-17 -0.2300000042 2.568333387)
(0 0.2300000042 2.606666565)
(1.408343814e-17 0.2300000042 2.568333387)
(-4.225031443e-17 -0.2300000042 2.606666565)
(0 0.2300000042 2.644999981)
(-4.225031443e-17 -0.2300000042 2.644999981)
(0 0.2300000042 2.683333397)
(-4.225031443e-17 -0.2300000042 2.683333397)
(0 0.2300000042 2.721666574)
(-4.225031443e-17 -0.2300000042 2.721666574)
(0 0.2300000042 2.75999999)
(-4.225031443e-17 -0.2300000042 2.75999999)
(0 0.2300000042 2.798333406)
(-4.225031443e-17 -0.2300000042 2.798333406)
(0 0.2300000042 2.836666584)
(-4.225031443e-17 -0.2300000042 2.836666584)
(0 0.2300000042 2.875)
(-4.225031443e-17 -0.2300000042 2.875)
(0 0.2300000042 2.913333416)
(-4.225031443e-17 -0.2300000042 2.913333416)
(0 0.2300000042 2.951666594)
(-4.225031443e-17 -0.2300000042 2.951666594)
(0 0.2300000042 2.99000001)
(-4.225031443e-17 -0.2300000042 2.99000001)
(0 0.2300000042 3.028333426)
(-4.225031443e-17 -0.2300000042 3.028333426)
(0 0.2300000042 3.066666603)
(-4.225031443e-17 -0.2300000042 3.066666603)
(0 0.2300000042 3.105000019)
(-4.225031443e-17 -0.2300000042 3.105000019)
(0 0.2300000042 3.143333435)
(-4.225031443e-17 -0.2300000042 3.143333435)
(0 0.2300000042 3.181666613)
(-4.225031443e-17 -0.2300000042 3.181666613)
(0 0.2300000042 3.220000029)
(-4.225031443e-17 -0.2300000042 3.220000029)
(0 0.2300000042 3.258333445)
(-4.225031443e-17 -0.2300000042 3.258333445)
(0 0.2300000042 3.296666622)
(-4.225031443e-17 -0.2300000042 3.296666622)
(0 0.2300000042 3.335000038)
(-4.225031443e-17 -0.2300000042 3.335000038)
(0 0.2300000042 3.373333216)
(-4.225031443e-17 -0.2300000042 3.373333216)
(0 0.2300000042 3.411666632)
(-4.225031443e-17 -0.2300000042 3.411666632)
(0 0.2300000042 3.450000048)
(-4.225031443e-17 -0.2300000042 3.450000048)
(0 0.2300000042 3.488333225)
(-4.225031443e-17 -0.2300000042 3.488333225)
(0 0.2300000042 3.526666641)
(-4.225031443e-17 -0.2300000042 3.526666641)
(0 0.2300000042 3.565000057)
(-4.225031443e-17 -0.2300000042 3.565000057)
(0 0.2300000042 3.603333235)
(-4.225031443e-17 -0.2300000042 3.603333235)
(0 0.2300000042 3.641666651)
(-4.225031443e-17 -0.2300000042 3.641666651)
(0 0.2300000042 3.680000067)
(-4.225031443e-17 -0.2300000042 3.680000067)
(0 0.2300000042 3.718333244)
(-4.225031443e-17 -0.2300000042 3.718333244)
(0 0.2300000042 3.75666666)
(-4.225031443e-17 -0.2300000042 3.75666666)
(0 0.2300000042 3.795000076)
(-4.225031443e-17 -0.2300000042 3.795000076)
(0 0.2300000042 3.833333254)
(-4.225031443e-17 -0.2300000042 3.833333254)
(0 0.2300000042 3.87166667)
(-4.225031443e-17 -0.2300000042 3.87166667)
(0 0.2300000042 3.910000086)
(-4.225031443e-17 -0.2300000042 3.910000086)
(0 0.2300000042 3.948333263)
(-4.225031443e-17 -0.2300000042 3.948333263)
(0 0.2300000042 3.986666679)
(-4.225031443e-17 -0.2300000042 3.986666679)
(0 0.2300000042 4.025000095)
(-4.225031443e-17 -0.2300000042 4.025000095)
(0 0.2300000042 4.063333511)
(-4.225031443e-17 -0.2300000042 4.063333511)
(0 0.2300000042 4.101666451)
(-4.225031443e-17 -0.2300000042 4.101666451)
(0 0.2300000042 4.139999866)
(-4.225031443e-17 -0.2300000042 4.139999866)
(0 0.2300000042 4.178333282)
(-4.225031443e-17 -0.2300000042 4.178333282)
(0 0.2300000042 4.216666698)
(-4.225031443e-17 -0.2300000042 4.216666698)
(0 0.2300000042 4.255000114)
(-4.225031443e-17 -0.2300000042 4.255000114)
(0 0.2300000042 4.29333353)
(-4.225031443e-17 -0.2300000042 4.29333353)
(0 0.2300000042 4.33166647)
(-4.225031443e-17 -0.2300000042 4.33166647)
(0 0.2300000042 4.369999886)
(-4.225031443e-17 -0.2300000042 4.369999886)
(0 0.2300000042 4.408333302)
(-4.225031443e-17 -0.2300000042 4.408333302)
(0 0.2300000042 4.446666718)
(-4.225031443e-17 -0.2300000042 4.446666718)
(0 0.2300000042 4.485000134)
(-4.225031443e-17 -0.2300000042 4.485000134)
(0 0.2300000042 4.523333549)
(-4.225031443e-17 -0.2300000042 4.523333549)
(0 0.2300000042 4.561666489)
(-4.225031443e-17 -0.2300000042 4.561666489)
(0 0.2300000042 4.599999905)
(-4.225031443e-17 -0.2300000042 4.599999905)
(0 0.2300000042 4.638333321)
(-4.225031443e-17 -0.2300000042 4.638333321)
(0 0.2300000042 4.676666737)
(-4.225031443e-17 -0.2300000042 4.676666737)
(0 0.2300000042 4.715000153)
(-4.225031443e-17 -0.2300000042 4.715000153)
(0 0.2300000042 4.753333569)
(-4.225031443e-17 -0.2300000042 4.753333569)
(0 0.2300000042 4.791666508)
(-4.225031443e-17 -0.2300000042 4.791666508)
(0 0.2300000042 4.829999924)
(-4.225031443e-17 -0.2300000042 4.829999924)
(0 0.2300000042 4.86833334)
(-4.225031443e-17 -0.2300000042 4.86833334)
(0 0.2300000042 4.906666756)
(-4.225031443e-17 -0.2300000042 4.906666756)
(0 0.2300000042 4.945000172)
(-4.225031443e-17 -0.2300000042 4.945000172)
(0 0.2300000042 4.983333111)
(-4.225031443e-17 -0.2300000042 4.983333111)
(0 0.2300000042 5.021666527)
(-4.225031443e-17 -0.2300000042 5.021666527)
(0 0.2300000042 5.059999943)
(-4.225031443e-17 -0.2300000042 5.059999943)
(0 0.2300000042 5.098333359)
(-4.225031443e-17 -0.2300000042 5.098333359)
(0 0.2300000042 5.136666775)
(-4.225031443e-17 -0.2300000042 5.136666775)
(0 0.2300000042 5.175000191)
(-4.225031443e-17 -0.2300000042 5.175000191)
(0 0.2300000042 5.21333313)
(-4.225031443e-17 -0.2300000042 5.21333313)
(0 0.2300000042 5.251666546)
(-4.225031443e-17 -0.2300000042 5.251666546)
(0 0.2300000042 5.289999962)
(-4.225031443e-17 -0.2300000042 5.289999962)
(0 0.2300000042 5.328333378)
(-4.225031443e-17 -0.2300000042 5.328333378)
(0 0.2300000042 5.366666794)
(-4.225031443e-17 -0.2300000042 5.366666794)
(0 0.2300000042 5.40500021)
(-4.225031443e-17 -0.2300000042 5.40500021)
(0 0.2300000042 5.443333149)
(-4.225031443e-17 -0.2300000042 5.443333149)
(0 0.2300000042 5.481666565)
(-4.225031443e-17 -0.2300000042 5.481666565)
(0 0.2300000042 5.519999981)
(-4.225031443e-17 -0.2300000042 5.519999981)
(0 0.2300000042 5.558333397)
(-4.225031443e-17 -0.2300000042 5.558333397)
(0 0.2300000042 5.596666813)
(-4.225031443e-17 -0.2300000042 5.596666813)
(0 0.2300000042 5.635000229)
(-4.225031443e-17 -0.2300000042 5.635000229)
(0 0.2300000042 5.673333168)
(-4.225031443e-17 -0.2300000042 5.673333168)
(0 0.2300000042 5.711666584)
(-4.225031443e-17 -0.2300000042 5.711666584)
(0 0.2300000042 5.75)
(-4.225031443e-17 -0.2300000042 5.75)
(0 0.2300000042 5.788333416)
(-4.225031443e-17 -0.2300000042 5.788333416)
(0 0.2300000042 5.826666832)
(-4.225031443e-17 -0.2300000042 5.826666832)
(0 0.2300000042 5.864999771)
(-4.225031443e-17 -0.2300000042 5.864999771)
(0 0.2300000042 5.903333187)
(-4.225031443e-17 -0.2300000042 5.903333187)
(0 0.2300000042 5.941666603)
(-4.225031443e-17 -0.2300000042 5.941666603)
(0 0.2300000042 5.980000019)
(-4.225031443e-17 -0.2300000042 5.980000019)
(0 0.2300000042 6.018333435)
(-4.225031443e-17 -0.2300000042 6.018333435)
(0 0.2300000042 6.056666851)
(-4.225031443e-17 -0.2300000042 6.056666851)
(0 0.2300000042 6.09499979)
(-4.225031443e-17 -0.2300000042 6.09499979)
(0 0.2300000042 6.133333206)
(-4.225031443e-17 -0.2300000042 6.133333206)
(0 0.2300000042 6.171666622)
(-4.225031443e-17 -0.2300000042 6.171666622)
(0 0.2300000042 6.210000038)
(-4.225031443e-17 -0.2300000042 6.210000038)
(0 0.2300000042 6.248333454)
(-4.225031443e-17 -0.2300000042 6.248333454)
(0 0.2300000042 6.28666687)
(-4.225031443e-17 -0.2300000042 6.28666687)
(0 0.2300000042 6.324999809)
(-4.225031443e-17 -0.2300000042 6.324999809)
(0 0.2300000042 6.363333225)
(-4.225031443e-17 -0.2300000042 6.363333225)
(0 0.2300000042 6.401666641)
(-4.225031443e-17 -0.2300000042 6.401666641)
(0 0.2300000042 6.440000057)
(-4.225031443e-17 -0.2300000042 6.440000057)
(0 0.2300000042 6.478333473)
(-4.225031443e-17 -0.2300000042 6.478333473)
(0 0.2300000042 6.516666889)
(-4.225031443e-17 -0.2300000042 6.516666889)
(0 0.2300000042 6.554999828)
(-4.225031443e-17 -0.2300000042 6.554999828)
(0 0.2300000042 6.593333244)
(-4.225031443e-17 -0.2300000042 6.593333244)
(0 0.2300000042 6.63166666)
(-4.225031443e-17 -0.2300000042 6.63166666)
(0 0.2300000042 6.670000076)
(-4.225031443e-17 -0.2300000042 6.670000076)
(0 0.2300000042 6.708333492)
(-4.225031443e-17 -0.2300000042 6.708333492)
(0 0.2300000042 6.746666431)
(-4.225031443e-17 -0.2300000042 6.746666431)
(0 0.2300000042 6.784999847)
(-4.225031443e-17 -0.2300000042 6.784999847)
(0 0.2300000042 6.823333263)
(-4.225031443e-17 -0.2300000042 6.823333263)
(0 0.2300000042 6.861666679)
(-4.225031443e-17 -0.2300000042 6.861666679)
(0 0.2300000042 6.900000095)
(-4.225031443e-17 -0.2300000042 6.900000095)
(0.0292509906 0.2281323671 2.130893469)
(-1.671642848e-17 0.2300000042 2.118000031)
(0 0.2300000042 2.482000113)
(3.469446952e-18 0.2212599069 2.198096037)
(0 0.2453072369 2.455487013)
(-1.671642848e-17 0.2434308529 2.094737053)
(0 0.2606144845 2.428974152)
(-1.671642848e-17 0.2568617165 2.071474075)
(0 0.2759217322 2.40246129)
(-1.671642848e-17 0.2702925503 2.048211336)
(0 0.2912289798 2.375948429)
(-1.671642848e-17 0.2837234139 2.024948359)
(0 0.3065361977 2.349435329)
(-1.671642848e-17 0.2971542776 2.001685381)
(0 0.3218434453 2.322922468)
(-1.671642848e-17 0.3105851114 1.978422523)
(0 0.3371506929 2.296409607)
(-1.671642848e-17 0.324015975 1.955159545)
(0 0.3524579406 2.269896746)
(-1.671642848e-17 0.3374468386 1.931896687)
(0 0.3677651882 2.243383646)
(-1.671642848e-17 0.3508776724 1.908633709)
(0 0.3830724061 2.216870785)
(-1.671642848e-17 0.3643085361 1.885370851)
(0 0.3983796537 2.190357924)
(-1.671642848e-17 0.3777393997 1.862107873)
(0 0.4136869013 2.163845062)
(-1.671642848e-17 0.3911702335 1.838844895)
(0 0.428994149 2.137331963)
(-1.671642848e-17 0.4046010971 1.815582037)
(0 0.4443013966 2.110819101)
(-1.671642848e-17 0.4180319607 1.792319059)
(0 0.4596086144 2.08430624)
(-1.671642848e-17 0.4314627945 1.769056201)
(0 0.4749158621 2.057793379)
(-1.671642848e-17 0.4448936582 1.745793223)
(0 0.4902231097 2.031280279)
(-1.671642848e-17 0.4583245218 1.722530365)
(0 0.5055303574 2.004767418)
(-1.671642848e-17 0.4717553556 1.699267387)
(0 0.520837605 1.978254557)
(-1.671642848e-17 0.4851862192 1.676004529)
(0 0.5361448526 1.951741576)
(-1.671642848e-17 0.4986170828 1.652741551)
(0 0.5514521003 1.925228715)
(-1.671642848e-17 0.5120479465 1.629478693)
(0 0.5667593479 1.898715734)
(-1.671642848e-17 0.5254787803 1.606215715)
(0 0.5820665359 1.872202873)
(-1.671642848e-17 0.5389096141 1.582952857)
(0 0.5973737836 1.845689893)
(-1.671642848e-17 0.5523405075 1.559689879)
(0 0.6126810312 1.819177032)
(-1.671642848e-17 0.5657713413 1.536427021)
(0 0.6279882789 1.792664051)
(-1.671642848e-17 0.5792021751 1.513164043)
(0 0.6432955265 1.76615119)
(-1.671642848e-17 0.5926330686 1.489901185)
(0 0.6586027741 1.739638209)
(-1.671642848e-17 0.6060639024 1.466638207)
(0 0.6739100218 1.713125348)
(-1.671642848e-17 0.6194947362 1.443375349)
(0 0.6892172694 1.686612368)
(-1.671642848e-17 0.6329256296 1.420112371)
(0 0.7045245171 1.660099506)
(-1.671642848e-17 0.6463564634 1.396849513)
(0 0.7198317647 1.633586526)
(-1.671642848e-17 0.6597872972 1.373586535)
(0 0.7351389527 1.607073665)
(-1.671642848e-17 0.6732181907 1.350323677)
(0 0.7504462004 1.580560684)
(-1.671642848e-17 0.6866490245 1.327060699)
(0 0.765753448 1.554047823)
(-1.671642848e-17 0.7000798583 1.303797722)
(0 0.7810606956 1.527534842)
(-1.671642848e-17 0.7135107517 1.280534863)
(0 0.7963679433 1.501021981)
(-1.671642848e-17 0.7269415855 1.257271886)
(0 0.8116751909 1.474509001)
(-1.671642848e-17 0.7403724194 1.234009027)
(0 0.8269824386 1.44799614)
(-1.671642848e-17 0.7538033128 1.21074605)
(0 0.8422896862 1.421483159)
(-1.671642848e-17 0.7672341466 1.187483191)
(0 0.8575969338 1.394970298)
(-1.671642848e-17 0.7806649804 1.164220214)
(0 0.8729041815 1.368457317)
(-1.671642848e-17 0.7940958738 1.140957355)
(0 0.8882113695 1.341944456)
(-1.671642848e-17 0.8075267076 1.117694378)
(0 0.9035186172 1.315431476)
(-1.671642848e-17 0.8209575415 1.09443152)
(0 0.9188258648 1.288918614)
(-1.671642848e-17 0.8343883753 1.071168542)
(0 0.9341331124 1.262405634)
(-1.671642848e-17 0.8478192687 1.047905684)
(0 0.9494403601 1.235892773)
(-1.671642848e-17 0.8612501025 1.024642706)
(0 0.9647476077 1.209379792)
(-1.671642848e-17 0.8746809363 1.001379848)
(0 0.9800548553 1.182866931)
(-1.671642848e-17 0.8881118298 0.9781168699)
(0 0.995362103 1.156353951)
(-1.671642848e-17 0.9015426636 0.9548539519)
(0 1.010669351 1.129841089)
(-1.671642848e-17 0.9149734974 0.9315910339)
(0 1.025976539 1.103328109)
(-1.671642848e-17 0.9284043908 0.9083281159)
(0 1.041283846 1.076815248)
(-1.671642848e-17 0.9418352246 0.8850651979)
(0 1.056591034 1.050302267)
(-1.671642848e-17 0.9552660584 0.8618022799)
(0 1.071898341 1.023789406)
(-1.671642848e-17 0.9686969519 0.838539362)
(0 1.087205529 0.9972764254)
(-1.671642848e-17 0.9821277857 0.815276444)
(0 1.102512836 0.9707635045)
(-1.671642848e-17 0.9955586195 0.792013526)
(0 1.117820024 0.9442505836)
(-1.671642848e-17 1.008989453 0.768750608)
(0 1.133127213 0.9177376628)
(-1.671642848e-17 1.022420406 0.74548769)
(0 1.14843452 0.8912247419)
(-1.671642848e-17 1.03585124 0.722224772)
(0 1.163741708 0.8647118211)
(-1.671642848e-17 1.049282074 0.698961854)
(0 1.179049015 0.8381989002)
(-1.671642848e-17 1.062712908 0.675698936)
(0 1.194356203 0.8116859794)
(-1.671642848e-17 1.076143742 0.652436018)
(0 1.20966351 0.7851730585)
(-1.671642848e-17 1.089574575 0.6291731)
(0 1.224970698 0.7586601377)
(-1.671642848e-17 1.103005528 0.605910182)
(0 1.240278006 0.7321472168)
(-1.671642848e-17 1.116436362 0.582647264)
(0 1.255585194 0.7056342959)
(-1.671642848e-17 1.129867196 0.559384346)
(0 1.270892501 0.6791213751)
(-1.671642848e-17 1.14329803 0.536121428)
(0 1.286199689 0.6526084542)
(-1.671642848e-17 1.156728864 0.51285851)
(0 1.301506877 0.6260955334)
(-1.671642848e-17 1.170159698 0.4895955622)
(0 1.316814184 0.5995826125)
(-1.671642848e-17 1.183590651 0.4663326442)
(0 1.332121372 0.5730697513)
(-1.671642848e-17 1.197021484 0.4430697262)
(0 1.347428679 0.5465568304)
(-1.671642848e-17 1.210452318 0.4198068082)
(0 1.362735868 0.5200439095)
(-1.671642848e-17 1.223883152 0.3965438902)
(0 1.378043175 0.4935309589)
(-1.671642848e-17 1.237313986 0.3732809722)
(0 1.393350363 0.467018038)
(-1.671642848e-17 1.25074482 0.3500180542)
(0 1.40865767 0.4405051172)
(-1.671642848e-17 1.264175773 0.3267551064)
(0 1.423964858 0.4139921963)
(-1.671642848e-17 1.277606606 0.3034921885)
(0 1.439272046 0.3874792755)
(-1.671642848e-17 1.29103744 0.2802292705)
(0 1.454579353 0.3609663546)
(-1.671642848e-17 1.304468274 0.2569663525)
(0 1.469886541 0.3344534338)
(-1.671642848e-17 1.317899108 0.2337034345)
(0 1.485193849 0.3079405129)
(-1.671642848e-17 1.331329942 0.2104405165)
(0 1.500501037 0.281427592)
(-1.671642848e-17 1.344760776 0.1871775985)
(0 1.515808344 0.2549146712)
(-1.671642848e-17 1.358191729 0.1639146805)
(0 0.2282013297 2.482185364)
(0.2300000042 -5.633375257e-17 0)
(0.2295075506 0.01504271943 0)
(0.2280323207 0.03002102487 0)
(0.2255806178 0.04487077519 0)
(0.2221629471 0.05952838063 0)
(0.2177939266 0.07393107563 0)
(0.2124922872 0.08801718801 0)
(0.2062807232 0.1017263979 0)
(0.1991858482 0.1150000021 0)
(0.1912380159 0.1277811527 0)
(0.1824712753 0.1400151253 0)
(0.1729231626 0.1516495347 0)
(0.1626345664 0.1626345664 0)
(0.1516495347 0.1729231626 0)
(0.1400151253 0.1824712753 0)
(0.1277811527 0.1912380159 0)
(0.1150000021 0.1991858482 0)
(0.1017263979 0.2062807232 0)
(0.08801718801 0.2124922872 0)
(0.07393107563 0.2177939266 0)
(0.05952838063 0.2221629471 0)
(0.04487077519 0.2255806178 0)
(0.03002102487 0.2280323207 0)
(0.01504271943 0.2295075506 0)
(0.01504271943 -0.2295075506 0)
(0.03002102487 -0.2280323207 0)
(0.04487077519 -0.2255806178 0)
(0.05952838063 -0.2221629471 0)
(0.07393107563 -0.2177939266 0)
(0.08801718801 -0.2124922872 0)
(0.1017263979 -0.2062807232 0)
(0.1150000021 -0.1991858482 0)
(0.1277811527 -0.1912380159 0)
(0.1400151253 -0.1824712753 0)
(0.1516495347 -0.1729231626 0)
(0.1626345664 -0.1626345664 0)
(0.1729231626 -0.1516495347 0)
(0.1824712753 -0.1400151253 0)
(0.1912380159 -0.1277811527 0)
(0.1991858482 -0.1150000021 0)
(0.2062807232 -0.1017263979 0)
(0.2124922872 -0.08801718801 0)
(0.2177939266 -0.07393107563 0)
(0.2221629471 -0.05952838063 0)
(0.2255806178 -0.04487077519 0)
(0.2280323207 -0.03002102487 0)
(0.2295075506 -0.01504271943 0)
(0.2295075506 0.01504271943 6.900000095)
(0.2300000042 -5.633375257e-17 6.900000095)
(0.2280323207 0.03002102487 6.900000095)
(0.2255806178 0.04487077519 6.900000095)
(0.2221629471 0.05952838063 6.900000095)
(0.2177939266 0.07393107563 6.900000095)
(0.2124922872 0.08801718801 6.900000095)
(0.2062807232 0.1017263979 6.900000095)
(0.1991858482 0.1150000021 6.900000095)
(0.1912380159 0.1277811527 6.900000095)
(0.1824712753 0.1400151253 6.900000095)
(0.1729231626 0.1516495347 6.900000095)
(0.1626345664 0.1626345664 6.900000095)
(0.1516495347 0.1729231626 6.900000095)
(0.1400151253 0.1824712753 6.900000095)
(0.1277811527 0.1912380159 6.900000095)
(0.1150000021 0.1991858482 6.900000095)
(0.1017263979 0.2062807232 6.900000095)
(0.08801718801 0.2124922872 6.900000095)
(0.07393107563 0.2177939266 6.900000095)
(0.05952838063 0.2221629471 6.900000095)
(0.04487077519 0.2255806178 6.900000095)
(0.03002102487 0.2280323207 6.900000095)
(0.01504271943 0.2295075506 6.900000095)
(0.01504271943 -0.2295075506 6.900000095)
(0.03002102487 -0.2280323207 6.900000095)
(0.04487077519 -0.2255806178 6.900000095)
(0.05952838063 -0.2221629471 6.900000095)
(0.07393107563 -0.2177939266 6.900000095)
(0.08801718801 -0.2124922872 6.900000095)
(0.1017263979 -0.2062807232 6.900000095)
(0.1150000021 -0.1991858482 6.900000095)
(0.1277811527 -0.1912380159 6.900000095)
(0.1400151253 -0.1824712753 6.900000095)
(0.1516495347 -0.1729231626 6.900000095)
(0.1626345664 -0.1626345664 6.900000095)
(0.1729231626 -0.1516495347 6.900000095)
(0.1824712753 -0.1400151253 6.900000095)
(0.1912380159 -0.1277811527 6.900000095)
(0.1991858482 -0.1150000021 6.900000095)
(0.2062807232 -0.1017263979 6.900000095)
(0.2124922872 -0.08801718801 6.900000095)
(0.2177939266 -0.07393107563 6.900000095)
(0.2221629471 -0.05952838063 6.900000095)
(0.2255806178 -0.04487077519 6.900000095)
(0.2280323207 -0.03002102487 6.900000095)
(0.2295075506 -0.01504271943 6.900000095)
(-1.734723476e-18 0.2264225185 2.481883764)
(0 0.2246690691 2.481152296)
(0 0.2229464352 2.480036259)
(3.469446952e-18 0.2212599069 2.478573322)
(0 0.2196148336 2.476792336)
(0 0.2180164307 2.474716663)
(0 0.2164700031 2.472363234)
(-6.938893904e-18 0.214980796 2.469744444)
(6.938893904e-18 0.2135541439 2.466868877)
(0 0.2121952772 2.463741541)
(0 0.2109095454 2.460364103)
(0 0.2097021788 2.456736565)
(0 0.2085783631 2.452856302)
(0 0.2075431943 2.448718548)
(0 0.206601575 2.444317579)
(0 0.2057581693 2.439646721)
(0 0.205017373 2.434698343)
(0 0.2043831944 2.42946434)
(0 0.2038591653 2.42393589)
(0 0.2034482956 2.41810441)
(0 0.203153044 2.411961555)
(0 0.2029751539 2.405498743)
(0 0.202915743 2.398707867)
(0 0.2029751539 2.391581774)
(0 0.203153044 2.384112835)
(0 0.2034482956 2.376294613)
(0 0.2038591653 2.36812067)
(0 0.2043831944 2.35958457)
(0 0.205017373 2.350680828)
(0 0.2057581693 2.341403246)
(0 0.206601575 2.331745625)
(0 0.2075431943 2.321702003)
(0 0.2085783631 2.311264992)
(0 0.2097021788 2.300427198)
(0 0.2109095454 2.289180517)
(0 0.2121952772 2.277515411)
(6.938893904e-18 0.2135541439 2.265422106)
(-6.938893904e-18 0.214980796 2.25288868)
(0 0.2164700031 2.23990345)
(0 0.2180164307 2.226452827)
(0 0.2196148336 2.21252203)
(3.469446952e-18 0.2212599069 2.205236673)
(3.469446952e-18 0.2212599069 2.212377071)
(0 0.2222626358 2.219596863)
(0 0.2232522666 2.228586197)
(0 0.2242311537 2.240007162)
(0 0.2252015322 2.25490284)
(0 0.2261655629 2.275021076)
(0 0.2271253616 2.303522348)
(0 0.2280829996 2.346771955)
(0 0.2290405184 2.419773102)
(0.09080516547 1.442154288 0.2123905122)
(0.09099999815 1.437000036 0.2094146758)
(0.09022147954 1.447286606 0.215353623)
(0.08925145864 1.452374697 0.2182912827)
(0.08789925277 1.457397103 0.2211909443)
(0.08617064357 1.462332129 0.2240401655)
(0.08407303691 1.467158675 0.2268267721)
(0.0816154182 1.471855998 0.2295388132)
(0.0788083151 1.47640419 0.232164681)
(0.07566373795 1.480783582 0.2346931249)
(0.07219515741 1.484975457 0.2371133268)
(0.06841742247 1.488961935 0.2394149154)
(0.06434671581 1.492725849 0.2415880412)
(0.06000046805 1.496251225 0.2436233908)
(0.05539729074 1.499522805 0.2455122471)
(0.05055689067 1.50252676 0.2472465485)
(0.04549999908 1.505249977 0.2488188297)
(0.04024827108 1.507681012 0.2502223849)
(0.03482419252 1.509809375 0.2514511943)
(0.0292509906 1.511626005 0.2524999976)
(0.02355253324 1.513123035 0.2533642948)
(0.01775321923 1.514294028 0.2540404201)
(0.01187788323 1.515134096 0.254525423)
(0.0059516849 1.515639544 0.2548172474)
(0.0059516849 1.35836041 0.1640120894)
(0.01187788323 1.358865857 0.1643039286)
(0.01775321923 1.359705925 0.1647889465)
(0.02355253324 1.360877037 0.1654650569)
(0.0292509906 1.362374067 0.166329354)
(0.03482419252 1.364190578 0.1673781574)
(0.04024827108 1.366318941 0.1686069667)
(0.04549999908 1.368749976 0.170010522)
(0.05055689067 1.371473312 0.1715828031)
(0.05539729074 1.374477148 0.1733171046)
(0.06000046805 1.377748728 0.1752059609)
(0.06434671581 1.381274104 0.1772413105)
(0.06841742247 1.385038018 0.1794144362)
(0.07219515741 1.389024496 0.1817160249)
(0.07566373795 1.393216491 0.1841362268)
(0.0788083151 1.397595882 0.1866646707)
(0.0816154182 1.402143955 0.1892905384)
(0.08407303691 1.406841397 0.1920025796)
(0.08617064357 1.411667943 0.1947891861)
(0.08789925277 1.41660285 0.1976384073)
(0.08925145864 1.421625257 0.200538069)
(0.09022147954 1.426713467 0.2034757286)
(0.09080516547 1.431845665 0.2064388394)
(0.0059516849 0.2299229801 2.481743813)
(0.01187788323 0.229693085 2.480974436)
(0.01775321923 0.2293138057 2.479691505)
(0.02355253324 0.2287909091 2.477892637)
(0.0292509906 0.2281323671 2.475576162)
(0.03482419252 0.2273483574 2.472738743)
(0.04024827108 0.2264510542 2.469377756)
(0.04549999908 0.2254545391 2.465489626)
(0.05055689067 0.2243746817 2.461070776)
(0.05539729074 0.2232289016 2.456118107)
(0.06000046805 0.2220358998 2.450628996)
(0.06434671581 0.2208155394 2.444601297)
(0.06841742247 0.219588384 2.438034296)
(0.07219515741 0.218375504 2.430928707)
(0.07566373795 0.217198059 2.423287392)
(0.0788083151 0.2160769552 2.415115356)
(0.0816154182 0.2150323838 2.406421185)
(0.08407303691 0.2140834481 2.397216558)
(0.08617064357 0.2132477909 2.387517691)
(0.08789925277 0.2125411034 2.377344847)
(0.08925145864 0.2119768262 2.366723537)
(0.09022147954 0.2115657926 2.355684757)
(0.09080516547 0.2113159299 2.344265223)
(0.09099999815 0.211232096 2.332506895)
(0.09080516547 0.2113159299 2.320458412)
(0.09022147954 0.2115657926 2.30817318)
(0.08925145864 0.2119768262 2.295710564)
(0.08789925277 0.2125411034 2.283134699)
(0.08617064357 0.2132477909 2.270513773)
(0.08407303691 0.2140834481 2.257919788)
(0.0816154182 0.2150323838 2.245428085)
(0.0788083151 0.2160769552 2.233115435)
(0.07566373795 0.217198059 2.221059799)
(0.07219515741 0.218375504 2.209339619)
(0.06841742247 0.219588384 2.198032618)
(0.06434671581 0.2208155394 2.187214613)
(0.06000046805 0.2220358998 2.176959276)
(0.05539729074 0.2232289016 2.167337656)
(0.05055689067 0.2243746817 2.158415794)
(0.04549999908 0.2254545391 2.150256395)
(0.04024827108 0.2264510542 2.142916203)
(0.03482419252 0.2273483574 2.136446714)
(0.02355253324 0.2287909091 2.126295805)
(0.01775321923 0.2293138057 2.122685671)
(0.01187788323 0.229693085 2.120088577)
(0.0059516849 0.2299229801 2.118523121)
)


// edges:

2077
(
(714 351)
(715 714)
(716 715)
(717 716)
(718 717)
(719 718)
(720 719)
(721 720)
(722 721)
(723 722)
(724 723)
(725 724)
(726 725)
(727 726)
(728 727)
(729 728)
(730 729)
(731 730)
(732 731)
(733 732)
(734 733)
(735 734)
(736 735)
(737 736)
(738 737)
(739 738)
(740 739)
(741 740)
(742 741)
(743 742)
(744 743)
(745 744)
(746 745)
(747 746)
(748 747)
(749 748)
(750 749)
(751 750)
(752 751)
(753 752)
(754 753)
(755 754)
(352 349)
(349 755)
(756 349)
(757 756)
(758 757)
(759 758)
(350 759)
(522 523)
(523 524)
(524 525)
(525 526)
(526 527)
(527 528)
(528 529)
(529 530)
(530 531)
(531 532)
(532 533)
(533 534)
(534 535)
(535 536)
(536 537)
(537 538)
(538 539)
(539 540)
(540 541)
(541 542)
(542 543)
(543 544)
(544 545)
(545 1)
(3 3)
(3 546)
(546 547)
(547 548)
(548 549)
(549 550)
(550 551)
(551 552)
(552 553)
(553 554)
(554 555)
(555 556)
(556 557)
(557 558)
(558 559)
(559 560)
(560 561)
(561 562)
(562 563)
(563 564)
(564 565)
(565 566)
(566 567)
(567 568)
(568 522)
(569 570)
(571 569)
(572 571)
(573 572)
(574 573)
(575 574)
(576 575)
(577 576)
(578 577)