/*--------------------------------*- C++ -*----------------------------------*\
| =========                 |                                                 |
| \\      /  F ield         | OpenFOAM: The Open Source CFD Toolbox           |
|  \\    /   O peration     | Version:  2406                                  |
|   \\  /    A nd           | Website:  www.openfoam.com                      |
|    \\/     M anipulation  |                                                 |
\*---------------------------------------------------------------------------*/
FoamFile
{
    version     2.0;
    format      ascii;
    arch        "LSB;label=32;scalar=64";
    class       featureEdgeMesh;
    location    "constant/triSurface";
    object      wall.eMesh;
}
// * * * * * * * * * * * * * * * * * * * * * * * * * * * * * * * * * * * * * //


// points:

760
(
(0 0.2300000042 0.03833333403)
(0 0.2300000042 3.588879921e-17)
(-4.225031443e-17 -0.2300000042 0.03833333403)
(-4.225031443e-17 -0.2300000042 0)
(0 0.2300000042 0.07666666806)
(-4.225031443e-17 -0.2300000042 0.07666666806)
(0 0.2300000042 0.1150000021)
(-4.225031443e-17 -0.2300000042 0.1150000021)
(0 0.2300000042 0.1533333361)
(-4.225031443e-17 -0.2300000042 0.1533333361)
(0 0.2300000042 0.1916666627)
(-4.225031443e-17 -0.2300000042 0.1916666627)
(0 0.2300000042 0.2300000042)
(-4.225031443e-17 -0.2300000042 0.2300000042)
(0 0.2300000042 0.2683333457)
(-4.225031443e-17 -0.2300000042 0.2683333457)
(0 0.2300000042 0.3066666722)
(-4.225031443e-17 -0.2300000042 0.3066666722)
(0 0.2300000042 0.3449999988)
(-4.225031443e-17 -0.2300000042 0.3449999988)
(0 0.2300000042 0.3833333254)
(-4.225031443e-17 -0.2300000042 0.3833333254)
(0 0.2300000042 0.421666652)
(-4.225031443e-17 -0.2300000042 0.421666652)
(0 0.2300000042 0.4600000083)
(-4.225031443e-17 -0.2300000042 0.4600000083)
(0 0.2300000042 0.4983333349)
(-4.225031443e-17 -0.2300000042 0.4983333349)
(0 0.2300000042 0.5366666913)
(-4.225031443e-17 -0.2300000042 0.5366666913)
(0 0.2300000042 0.5749999881)
(-4.225031443e-17 -0.2300000042 0.5749999881)
(0 0.2300000042 0.6133333445)
(-4.225031443e-17 -0.2300000042 0.6133333445)
(0 0.2300000042 0.6516666412)
(-4.225031443e-17 -0.2300000042 0.6516666412)
(0 0.2300000042 0.6899999976)
(-4.225031443e-17 -0.2300000042 0.6899999976)
(0 0.2300000042 0.728333354)
(-4.225031443e-17 -0.2300000042 0.728333354)
(0 0.2300000042 0.7666666508)
(-4.225031443e-17 -0.2300000042 0.7666666508)
(0 0.2300000042 0.8050000072)
(-4.225031443e-17 -0.2300000042 0.8050000072)
(0 0.2300000042 0.8433333039)
(-4.225031443e-17 -0.2300000042 0.8433333039)
(0 0.2300000042 0.8816666603)
(-4.225031443e-17 -0.2300000042 0.8816666603)
(0 0.2300000042 0.9200000167)
(-4.225031443e-17 -0.2300000042 0.9200000167)
(0 0.2300000042 0.9583333135)
(-4.225031443e-17 -0.2300000042 0.9583333135)
(0 0.2300000042 0.9966666698)
(-4.225031443e-17 -0.2300000042 0.9966666698)
(0 0.2300000042 1.034999967)
(-4.225031443e-17 -0.2300000042 1.034999967)
(0 0.2300000042 1.073333383)
(-4.225031443e-17 -0.2300000042 1.073333383)
(0 0.2300000042 1.111666679)
(-4.225031443e-17 -0.2300000042 1.111666679)
(0 0.2300000042 1.149999976)
(-4.225031443e-17 -0.2300000042 1.149999976)
(0 0.2300000042 1.188333392)
(-4.225031443e-17 -0.2300000042 1.188333392)
(0 0.2300000042 1.226666689)
(-4.225031443e-17 -0.2300000042 1.226666689)
(0 0.2300000042 1.264999986)
(-4.225031443e-17 -0.2300000042 1.264999986)
(0 0.2300000042 1.303333282)
(-4.225031443e-17 -0.2300000042 1.303333282)
(0 0.2300000042 1.341666698)
(-4.225031443e-17 -0.2300000042 1.341666698)
(0 0.2300000042 1.379999995)
(-4.225031443e-17 -0.2300000042 1.379999995)
(0 0.2300000042 1.418333292)
(-4.225031443e-17 -0.2300000042 1.418333292)
(0 0.2300000042 1.456666708)
(-4.225031443e-17 -0.2300000042 1.456666708)
(0 0.2300000042 1.495000005)
(-4.225031443e-17 -0.2300000042 1.495000005)
(0 0.2300000042 1.533333302)
(-4.225031443e-17 -0.2300000042 1.533333302)
(0 0.2300000042 1.571666718)
(-4.225031443e-17 -0.2300000042 1.571666718)
(0 0.2300000042 1.610000014)
(-4.225031443e-17 -0.2300000042 1.610000014)
(0 0.2300000042 1.648333311)
(-4.225031443e-17 -0.2300000042 1.648333311)
(0 0.2300000042 1.686666608)
(-4.225031443e-17 -0.2300000042 1.686666608)
(0 0.2300000042 1.725000024)
(-4.225031443e-17 -0.2300000042 1.725000024)
(0 0.2300000042 1.763333321)
(-4.225031443e-17 -0.2300000042 1.763333321)
(0 0.2300000042 1.801666617)
(-4.225031443e-17 -0.2300000042 1.801666617)
(0 0.2300000042 1.840000033)
(-4.225031443e-17 -0.2300000042 1.840000033)
(0 0.2300000042 1.87833333)
(-4.225031443e-17 -0.2300000042 1.87833333)
(0 0.2300000042 1.916666627)
(-4.225031443e-17 -0.2300000042 1.916666627)
(0 0.2300000042 1.955000043)
(-4.225031443e-17 -0.2300000042 1.955000043)
(0 0.2300000042 1.99333334)
(-4.225031443e-17 -0.2300000042 1.99333334)
(0 0.2300000042 2.031666756)
(-4.225031443e-17 -0.2300000042 2.031666756)
(0 0.2300000042 2.069999933)
(-4.225031443e-17 -0.2300000042 2.069999933)
(0 0.2300000042 2.108333349)
(-4.225031443e-17 -0.2300000042 2.108333349)
(-4.225031443e-17 -0.2300000042 2.146666765)
(-4.225031443e-17 -0.2300000042 2.184999943)
(-4.225031443e-17 -0.2300000042 2.223333359)
(-4.225031443e-17 -0.2300000042 2.261666775)
(-4.225031443e-17 -0.2300000042 2.299999952)
(-4.225031443e-17 -0.2300000042 2.338333368)
(-4.225031443e-17 -0.2300000042 2.376666784)
(-4.225031443e-17 -0.2300000042 2.414999962)
(-4.225031443e-17 -0.2300000042 2.453333378)
(-4.225031443e-17 -0.2300000042 2.491666555)
(0 0.2300000042 2.529999971)
(1.408343814e-17 0.2300000042 2.491666555)
(-4.225031443e-17 -0.2300000042 2.529999971)
(0 0.2300000042 2.568333387)
(-4.225031443e-17 -0.2300000042 2.568333387)
(0 0.2300000042 2.606666565)
(-4.225031443e-17 -0.2300000042 2.606666565)
(0 0.2300000042 2.644999981)
(-4.225031443e-17 -0.2300000042 2.644999981)
(0 0.2300000042 2.683333397)
(-4.225031443e-17 -0.2300000042 2.683333397)
(0 0.2300000042 2.721666574)
(-4.225031443e-17 -0.2300000042 2.721666574)
(0 0.2300000042 2.75999999)
(-4.225031443e-17 -0.2300000042 2.75999999)
(0 0.2300000042 2.798333406)
(-4.225031443e-17 -0.2300000042 2.798333406)
(0 0.2300000042 2.836666584)
(-4.225031443e-17 -0.2300000042 2.836666584)
(0 0.2300000042 2.875)
(-4.225031443e-17 -0.2300000042 2.875)
(0 0.2300000042 2.913333416)
(-4.225031443e-17 -0.2300000042 2.913333416)
(0 0.2300000042 2.951666594)
(-4.225031443e-17 -0.2300000042 2.951666594)
(0 0.2300000042 2.99000001)
(-4.225031443e-17 -0.2300000042 2.99000001)
(0 0.2300000042 3.028333426)
(-4.225031443e-17 -0.2300000042 3.028333426)
(0 0.2300000042 3.066666603)
(-4.225031443e-17 -0.2300000042 3.066666603)
(0 0.2300000042 3.105000019)
(-4.225031443e-17 -0.2300000042 3.105000019)
(0 0.2300000042 3.143333435)
(-4.225031443e-17 -0.2300000042 3.143333435)
(0 0.2300000042 3.181666613)
(-4.225031443e-17 -0.2300000042 3.181666613)
(0 0.2300000042 3.220000029)
(-4.225031443e-17 -0.2300000042 3.220000029)
(0 0.2300000042 3.258333445)
(-4.225031443e-17 -0.2300000042 3.258333445)
(0 0.2300000042 3.296666622)
(-4.225031443e-17 -0.2300000042 3.296666622)
(0 0.2300000042 3.335000038)
(-4.225031443e-17 -0.2300000042 3.335000038)
(0 0.2300000042 3.373333216)
(-4.225031443e-17 -0.2300000042 3.373333216)
(0 0.2300000042 3.411666632)
(-4.225031443e-17 -0.2300000042 3.411666632)
(0 0.2300000042 3.450000048)
(-4.225031443e-17 -0.2300000042 3.450000048)
(0 0.2300000042 3.488333225)
(-4.225031443e-17 -0.2300000042 3.488333225)
(0 0.2300000042 3.526666641)
(-4.225031443e-17 -0.2300000042 3.526666641)
(0 0.2300000042 3.565000057)
(-4.225031443e-17 -0.2300000042 3.565000057)
(0 0.2300000042 3.603333235)
(-4.225031443e-17 -0.2300000042 3.603333235)
(0 0.2300000042 3.641666651)
(-4.225031443e-17 -0.2300000042 3.641666651)
(0 0.2300000042 3.680000067)
(-4.225031443e-17 -0.2300000042 3.680000067)
(0 0.2300000042 3.718333244)
(-4.225031443e-17 -0.2300000042 3.718333244)
(0 0.2300000042 3.75666666)
(-4.225031443e-17 -0.2300000042 3.75666666)
(0 0.2300000042 3.795000076)
(-4.225031443e-17 -0.2300000042 3.795000076)
(0 0.2300000042 3.833333254)
(-4.225031443e-17 -0.2300000042 3.833333254)
(0 0.2300000042 3.87166667)
(-4.225031443e-17 -0.2300000042 3.87166667)
(0 0.2300000042 3.910000086)
(-4.225031443e-17 -0.2300000042 3.910000086)
(0 0.2300000042 3.948333263)
(-4.225031443e-17 -0.2300000042 3.948333263)
(0 0.2300000042 3.986666679)
(-4.225031443e-17 -0.2300000042 3.986666679)
(0 0.2300000042 4.025000095)
(-4.225031443e-17 -0.2300000042 4.025000095)
(0 0.2300000042 4.063333511)
(-4.225031443e-17 -0.2300000042 4.063333511)
(0 0.2300000042 4.101666451)
(-4.225031443e-17 -0.2300000042 4.101666451)
(0 0.2300000042 4.139999866)
(-4.225031443e-17 -0.2300000042 4.139999866)
(0 0.2300000042 4.178333282)
(-4.225031443e-17 -0.2300000042 4.178333282)
(0 0.2300000042 4.216666698)
(-4.225031443e-17 -0.2300000042 4.216666698)
(0 0.2300000042 4.255000114)
(-4.225031443e-17 -0.2300000042 4.255000114)
(0 0.2300000042 4.29333353)
(-4.225031443e-17 -0.2300000042 4.29333353)
(0 0.2300000042 4.33166647)
(-4.225031443e-17 -0.2300000042 4.33166647)
(0 0.2300000042 4.369999886)
(-4.225031443e-17 -0.2300000042 4.369999886)
(0 0.2300000042 4.408333302)
(-4.225031443e-17 -0.2300000042 4.408333302)
(0 0.2300000042 4.446666718)
(-4.225031443e-17 -0.2300000042 4.446666718)
(0 0.2300000042 4.485000134)
(-4.225031443e-17 -0.2300000042 4.485000134)
(0 0.2300000042 4.523333549)
(-4.225031443e-17 -0.2300000042 4.523333549)
(0 0.2300000042 4.561666489)
(-4.225031443e-17 -0.2300000042 4.561666489)
(0 0.2300000042 4.599999905)
(-4.225031443e-17 -0.2300000042 4.599999905)
(0 0.2300000042 4.638333321)
(-4.225031443e-17 -0.2300000042 4.638333321)
(0 0.2300000042 4.676666737)
(-4.225031443e-17 -0.2300000042 4.676666737)
(0 0.2300000042 4.715000153)
(-4.225031443e-17 -0.2300000042 4.715000153)
(0 0.2300000042 4.753333569)
(-4.225031443e-17 -0.2300000042 4.753333569)
(0 0.2300000042 4.791666508)
(-4.225031443e-17 -0.2300000042 4.791666508)
(0 0.2300000042 4.829999924)
(-4.225031443e-17 -0.2300000042 4.829999924)
(0 0.2300000042 4.86833334)
(-4.225031443e-17 -0.2300000042 4.86833334)
(0 0.2300000042 4.906666756)
(-4.225031443e-17 -0.2300000042 4.906666756)
(0 0.2300000042 4.945000172)
(-4.225031443e-17 -0.2300000042 4.945000172)
(0 0.2300000042 4.983333111)
(-4.225031443e-17 -0.2300000042 4.983333111)
(0 0.2300000042 5.021666527)
(-4.225031443e-17 -0.2300000042 5.021666527)
(0 0.2300000042 5.059999943)
(-4.225031443e-17 -0.2300000042 5.059999943)
(0 0.2300000042 5.098333359)
(-4.225031443e-17 -0.2300000042 5.098333359)
(0 0.2300000042 5.136666775)
(-4.225031443e-17 -0.2300000042 5.136666775)
(0 0.2300000042 5.175000191)
(-4.225031443e-17 -0.2300000042 5.175000191)
(0 0.2300000042 5.21333313)
(-4.225031443e-17 -0.2300000042 5.21333313)
(0 0.2300000042 5.251666546)
(-4.225031443e-17 -0.2300000042 5.251666546)
(0 0.2300000042 5.289999962)
(-4.225031443e-17 -0.2300000042 5.289999962)
(0 0.2300000042 5.328333378)
(-4.225031443e-17 -0.2300000042 5.328333378)
(0 0.2300000042 5.366666794)
(-4.225031443e-17 -0.2300000042 5.366666794)
(0 0.2300000042 5.40500021)
(-4.225031443e-17 -0.2300000042 5.40500021)
(0 0.2300000042 5.443333149)
(-4.225031443e-17 -0.2300000042 5.443333149)
(0 0.2300000042 5.481666565)
(-4.225031443e-17 -0.2300000042 5.481666565)
(0 0.2300000042 5.519999981)
(-4.225031443e-17 -0.2300000042 5.519999981)
(0 0.2300000042 5.558333397)
(-4.225031443e-17 -0.2300000042 5.558333397)
(0 0.2300000042 5.596666813)
(-4.225031443e-17 -0.2300000042 5.596666813)
(0 0.2300000042 5.635000229)
(-4.225031443e-17 -0.2300000042 5.635000229)
(0 0.2300000042 5.673333168)
(-4.225031443e-17 -0.2300000042 5.673333168)
(0 0.2300000042 5.711666584)
(-4.225031443e-17 -0.2300000042 5.711666584)
(0 0.2300000042 5.75)
(-4.225031443e-17 -0.2300000042 5.75)
(0 0.2300000042 5.788333416)
(-4.225031443e-17 -0.2300000042 5.788333416)
(0 0.2300000042 5.826666832)
(-4.225031443e-17 -0.2300000042 5.826666832)
(0 0.2300000042 5.864999771)
(-4.225031443e-17 -0.2300000042 5.864999771)
(0 0.2300000042 5.903333187)
(-4.225031443e-17 -0.2300000042 5.903333187)
(0 0.2300000042 5.941666603)
(-4.225031443e-17 -0.2300000042 5.941666603)
(0 0.2300000042 5.980000019)
(-4.225031443e-17 -0.2300000042 5.980000019)
(0 0.2300000042 6.018333435)
(-4.225031443e-17 -0.2300000042 6.018333435)
(0 0.2300000042 6.056666851)
(-4.225031443e-17 -0.2300000042 6.056666851)
(0 0.2300000042 6.09499979)
(-4.225031443e-17 -0.2300000042 6.09499979)
(0 0.2300000042 6.133333206)
(-4.225031443e-17 -0.2300000042 6.133333206)
(0 0.2300000042 6.171666622)
(-4.225031443e-17 -0.2300000042 6.171666622)
(0 0.2300000042 6.210000038)
(-4.225031443e-17 -0.2300000042 6.210000038)
(0 0.2300000042 6.248333454)
(-4.225031443e-17 -0.2300000042 6.248333454)
(0 0.2300000042 6.28666687)
(-4.225031443e-17 -0.2300000042 6.28666687)
(0 0.2300000042 6.324999809)
(-4.225031443e-17 -0.2300000042 6.324999809)
(0 0.2300000042 6.363333225)
(-4.225031443e-17 -0.2300000042 6.363333225)
(0 0.2300000042 6.401666641)
(-4.225031443e-17 -0.2300000042 6.401666641)
(0 0.2300000042 6.440000057)
(-4.225031443e-17 -0.2300000042 6.440000057)
(0 0.2300000042 6.478333473)
(-4.225031443e-17 -0.2300000042 6.478333473)
(0 0.2300000042 6.516666889)
(-4.225031443e-17 -0.2300000042 6.516666889)
(0 0.2300000042 6.554999828)
(-4.225031443e-17 -0.2300000042 6.554999828)
(0 0.2300000042 6.593333244)
(-4.225031443e-17 -0.2300000042 6.593333244)
(0 0.2300000042 6.63166666)
(-4.225031443e-17 -0.2300000042 6.63166666)
(0 0.2300000042 6.670000076)
(-4.225031443e-17 -0.2300000042 6.670000076)
(0 0.2300000042 6.708333492)
(-4.225031443e-17 -0.2300000042 6.708333492)
(0 0.2300000042 6.746666431)
(-4.225031443e-17 -0.2300000042 6.746666431)
(0 0.2300000042 6.784999847)
(-4.225031443e-17 -0.2300000042 6.784999847)
(0 0.2300000042 6.823333263)
(-4.225031443e-17 -0.2300000042 6.823333263)
(0 0.2300000042 6.861666679)
(-4.225031443e-17 -0.2300000042 6.861666679)
(0 0.2300000042 6.900000095)
(-4.225031443e-17 -0.2300000042 6.900000095)
(0.05055689067 0.2243746817 2.224336147)
(-1.671642848e-17 0.2300000042 2.209000111)
(0 0.2300000042 2.391000032)
(-6.938893904e-18 0.214980796 2.278387308)
(0 0.2560000122 2.391000032)
(-1.671642848e-17 0.2560000122 2.209000111)
(0 0.2820000052 2.391000032)
(-1.671642848e-17 0.2820000052 2.209000111)
(0 0.3079999983 2.391000032)
(-1.671642848e-17 0.3079999983 2.209000111)
(0 0.3339999914 2.391000032)
(-1.671642848e-17 0.3339999914 2.209000111)
(0 0.3600000143 2.391000032)
(-1.671642848e-17 0.3600000143 2.209000111)
(0 0.3860000074 2.391000032)
(-1.671642848e-17 0.3860000074 2.209000111)
(0 0.4120000005 2.391000032)
(-1.671642848e-17 0.4120000005 2.209000111)
(0 0.4379999936 2.391000032)
(-1.671642848e-17 0.4379999936 2.209000111)
(0 0.4639999866 2.391000032)
(-1.671642848e-17 0.4639999866 2.209000111)
(0 0.4900000095 2.391000032)
(-1.671642848e-17 0.4900000095 2.209000111)
(0 0.5159999728 2.391000032)
(-1.671642848e-17 0.5159999728 2.209000111)
(0 0.5419999957 2.391000032)
(-1.671642848e-17 0.5419999957 2.209000111)
(0 0.5680000186 2.391000032)
(-1.671642848e-17 0.5680000186 2.209000111)
(0 0.5939999819 2.391000032)
(-1.671642848e-17 0.5939999819 2.209000111)
(0 0.6200000048 2.391000032)
(-1.671642848e-17 0.6200000048 2.209000111)
(0 0.6460000277 2.391000032)
(-1.671642848e-17 0.6460000277 2.209000111)
(0 0.6719999909 2.391000032)
(-1.671642848e-17 0.6719999909 2.209000111)
(0 0.6980000138 2.391000032)
(-1.671642848e-17 0.6980000138 2.209000111)
(0 0.7239999771 2.391000032)
(-1.671642848e-17 0.7239999771 2.209000111)
(0 0.75 2.391000032)
(-1.671642848e-17 0.75 2.209000111)
(0 0.7760000229 2.391000032)
(-1.671642848e-17 0.7760000229 2.209000111)
(0 0.8019999862 2.391000032)
(-1.671642848e-17 0.8019999862 2.209000111)
(0 0.8280000091 2.391000032)
(-1.671642848e-17 0.8280000091 2.209000111)
(0 0.8539999723 2.391000032)
(-1.671642848e-17 0.8539999723 2.209000111)
(0 0.8799999952 2.391000032)
(-1.671642848e-17 0.8799999952 2.209000111)
(0 0.9060000181 2.391000032)
(-1.671642848e-17 0.9060000181 2.209000111)
(0 0.9319999814 2.391000032)
(-1.671642848e-17 0.9319999814 2.209000111)
(0 0.9580000043 2.391000032)
(-1.671642848e-17 0.9580000043 2.209000111)
(0 0.9840000272 2.391000032)
(-1.671642848e-17 0.9840000272 2.209000111)
(0 1.00999999 2.391000032)
(-1.671642848e-17 1.00999999 2.209000111)
(0 1.036000013 2.391000032)
(-1.671642848e-17 1.036000013 2.209000111)
(0 1.062000036 2.391000032)
(-1.671642848e-17 1.062000036 2.209000111)
(0 1.088000059 2.391000032)
(-1.671642848e-17 1.088000059 2.209000111)
(0 1.113999963 2.391000032)
(-1.671642848e-17 1.113999963 2.209000111)
(0 1.139999986 2.391000032)
(-1.671642848e-17 1.139999986 2.209000111)
(0 1.166000009 2.391000032)
(-1.671642848e-17 1.166000009 2.209000111)
(0 1.192000031 2.391000032)
(-1.671642848e-17 1.192000031 2.209000111)
(0 1.218000054 2.391000032)
(-1.671642848e-17 1.218000054 2.209000111)
(0 1.243999958 2.391000032)
(-1.671642848e-17 1.243999958 2.209000111)
(0 1.269999981 2.391000032)
(-1.671642848e-17 1.269999981 2.209000111)
(0 1.296000004 2.391000032)
(-1.671642848e-17 1.296000004 2.209000111)
(0 1.322000027 2.391000032)
(-1.671642848e-17 1.322000027 2.209000111)
(0 1.34800005 2.391000032)
(-1.671642848e-17 1.34800005 2.209000111)
(0 1.373999953 2.391000032)
(-1.671642848e-17 1.373999953 2.209000111)
(0 1.399999976 2.391000032)
(-1.671642848e-17 1.399999976 2.209000111)
(0 1.425999999 2.391000032)
(-1.671642848e-17 1.425999999 2.209000111)
(0 1.452000022 2.391000032)
(-1.671642848e-17 1.452000022 2.209000111)
(0 1.478000045 2.391000032)
(-1.671642848e-17 1.478000045 2.209000111)
(0 1.503999949 2.391000032)
(-1.671642848e-17 1.503999949 2.209000111)
(0 1.529999971 2.391000032)
(-1.671642848e-17 1.529999971 2.209000111)
(0 1.555999994 2.391000032)
(-1.671642848e-17 1.555999994 2.209000111)
(0 1.582000017 2.391000032)
(-1.671642848e-17 1.582000017 2.209000111)
(0 1.60800004 2.391000032)
(-1.671642848e-17 1.60800004 2.209000111)
(0 1.633999944 2.391000032)
(-1.671642848e-17 1.633999944 2.209000111)
(0 1.659999967 2.391000032)
(-1.671642848e-17 1.659999967 2.209000111)
(0 1.68599999 2.391000032)
(-1.671642848e-17 1.68599999 2.209000111)
(0 1.712000012 2.391000032)
(-1.671642848e-17 1.712000012 2.209000111)
(0 1.738000035 2.391000032)
(-1.671642848e-17 1.738000035 2.209000111)
(0 1.764000058 2.391000032)
(-1.671642848e-17 1.764000058 2.209000111)
(0 1.789999962 2.391000032)
(-1.671642848e-17 1.789999962 2.209000111)
(0 1.815999985 2.391000032)
(-1.671642848e-17 1.815999985 2.209000111)
(0 1.842000008 2.391000032)
(-1.671642848e-17 1.842000008 2.209000111)
(0 1.868000031 2.391000032)
(-1.671642848e-17 1.868000031 2.209000111)
(0 1.894000053 2.391000032)
(-1.671642848e-17 1.894000053 2.209000111)
(0 1.919999957 2.391000032)
(-1.671642848e-17 1.919999957 2.209000111)
(0 1.94599998 2.391000032)
(-1.671642848e-17 1.94599998 2.209000111)
(0 1.972000003 2.391000032)
(-1.671642848e-17 1.972000003 2.209000111)
(0 1.998000026 2.391000032)
(-1.671642848e-17 1.998000026 2.209000111)
(0 2.023999929 2.391000032)
(-1.671642848e-17 2.023999929 2.209000111)
(0 2.049999952 2.391000032)
(-1.671642848e-17 2.049999952 2.209000111)
(0 2.075999975 2.391000032)
(-1.671642848e-17 2.075999975 2.209000111)
(0 2.101999998 2.391000032)
(-1.671642848e-17 2.101999998 2.209000111)
(0 2.128000021 2.391000032)
(-1.671642848e-17 2.128000021 2.209000111)
(0 2.154000044 2.391000032)
(-1.671642848e-17 2.154000044 2.209000111)
(0 2.180000067 2.391000032)
(-1.671642848e-17 2.180000067 2.209000111)
(0 2.20600009 2.391000032)
(-1.671642848e-17 2.20600009 2.209000111)
(0 2.232000113 2.391000032)
(-1.671642848e-17 2.232000113 2.209000111)
(0 2.257999897 2.391000032)
(-1.671642848e-17 2.257999897 2.209000111)
(0 2.28399992 2.391000032)
(-1.671642848e-17 2.28399992 2.209000111)
(0 2.309999943 2.391000032)
(-1.671642848e-17 2.309999943 2.209000111)
(0 2.335999966 2.391000032)
(-1.671642848e-17 2.335999966 2.209000111)
(0 2.361999989 2.391000032)
(-1.671642848e-17 2.361999989 2.209000111)
(0 2.388000011 2.391000032)
(-1.671642848e-17 2.388000011 2.209000111)
(0 2.414000034 2.391000032)
(-1.671642848e-17 2.414000034 2.209000111)
(0 0.2282013297 2.391881943)
(0.2300000042 -5.633375257e-17 0)
(0.2295075506 0.01504271943 0)
(0.2280323207 0.03002102487 0)
(0.2255806178 0.04487077519 0)
(0.2221629471 0.05952838063 0)
(0.2177939266 0.07393107563 0)
(0.2124922872 0.08801718801 0)
(0.2062807232 0.1017263979 0)
(0.1991858482 0.1150000021 0)
(0.1912380159 0.1277811527 0)
(0.1824712753 0.1400151253 0)
(0.1729231626 0.1516495347 0)
(0.1626345664 0.1626345664 0)
(0.1516495347 0.1729231626 0)
(0.1400151253 0.1824712753 0)
(0.1277811527 0.1912380159 0)
(0.1150000021 0.1991858482 0)
(0.1017263979 0.2062807232 0)
(0.08801718801 0.2124922872 0)
(0.07393107563 0.2177939266 0)
(0.05952838063 0.2221629471 0)
(0.04487077519 0.2255806178 0)
(0.03002102487 0.2280323207 0)
(0.01504271943 0.2295075506 0)
(0.01504271943 -0.2295075506 0)
(0.03002102487 -0.2280323207 0)
(0.04487077519 -0.2255806178 0)
(0.05952838063 -0.2221629471 0)
(0.07393107563 -0.2177939266 0)
(0.08801718801 -0.2124922872 0)
(0.1017263979 -0.2062807232 0)
(0.1150000021 -0.1991858482 0)
(0.1277811527 -0.1912380159 0)
(0.1400151253 -0.1824712753 0)
(0.1516495347 -0.1729231626 0)
(0.1626345664 -0.1626345664 0)
(0.1729231626 -0.1516495347 0)
(0.1824712753 -0.1400151253 0)
(0.1912380159 -0.1277811527 0)
(0.1991858482 -0.1150000021 0)
(0.2062807232 -0.1017263979 0)
(0.2124922872 -0.08801718801 0)
(0.2177939266 -0.07393107563 0)
(0.2221629471 -0.05952838063 0)
(0.2255806178 -0.04487077519 0)
(0.2280323207 -0.03002102487 0)
(0.2295075506 -0.01504271943 0)
(0.2295075506 0.01504271943 6.900000095)
(0.2300000042 -5.633375257e-17 6.900000095)
(0.2280323207 0.03002102487 6.900000095)
(0.2255806178 0.04487077519 6.900000095)
(0.2221629471 0.05952838063 6.900000095)
(0.2177939266 0.07393107563 6.900000095)
(0.2124922872 0.08801718801 6.900000095)
(0.2062807232 0.1017263979 6.900000095)
(0.1991858482 0.1150000021 6.900000095)
(0.1912380159 0.1277811527 6.900000095)
(0.1824712753 0.1400151253 6.900000095)
(0.1729231626 0.1516495347 6.900000095)
(0.1626345664 0.1626345664 6.900000095)
(0.1516495347 0.1729231626 6.900000095)
(0.1400151253 0.1824712753 6.900000095)
(0.1277811527 0.1912380159 6.900000095)
(0.1150000021 0.1991858482 6.900000095)
(0.1017263979 0.2062807232 6.900000095)
(0.08801718801 0.2124922872 6.900000095)
(0.07393107563 0.2177939266 6.900000095)
(0.05952838063 0.2221629471 6.900000095)
(0.04487077519 0.2255806178 6.900000095)
(0.03002102487 0.2280323207 6.900000095)
(0.01504271943 0.2295075506 6.900000095)
(0.01504271943 -0.2295075506 6.900000095)
(0.03002102487 -0.2280323207 6.900000095)
(0.04487077519 -0.2255806178 6.900000095)
(0.05952838063 -0.2221629471 6.900000095)
(0.07393107563 -0.2177939266 6.900000095)
(0.08801718801 -0.2124922872 6.900000095)
(0.1017263979 -0.2062807232 6.900000095)
(0.1150000021 -0.1991858482 6.900000095)
(0.1277811527 -0.1912380159 6.900000095)
(0.1400151253 -0.1824712753 6.900000095)
(0.1516495347 -0.1729231626 6.900000095)
(0.1626345664 -0.1626345664 6.900000095)
(0.1729231626 -0.1516495347 6.900000095)
(0.1824712753 -0.1400151253 6.900000095)
(0.1912380159 -0.1277811527 6.900000095)
(0.1991858482 -0.1150000021 6.900000095)
(0.2062807232 -0.1017263979 6.900000095)
(0.2124922872 -0.08801718801 6.900000095)
(0.2177939266 -0.07393107563 6.900000095)
(0.2221629471 -0.05952838063 6.900000095)
(0.2255806178 -0.04487077519 6.900000095)
(0.2280323207 -0.03002102487 6.900000095)
(0.2295075506 -0.01504271943 6.900000095)
(-1.734723476e-18 0.2264225185 2.392328978)
(0 0.2246690691 2.392392397)
(0 0.2229464352 2.392117023)
(3.469446952e-18 0.2212599069 2.391540766)
(0 0.2196148336 2.390696526)
(0 0.2180164307 2.389611959)
(0 0.2164700031 2.388311386)
(-6.938893904e-18 0.214980796 2.386815071)
(6.938893904e-18 0.2135541439 2.385140419)
(0 0.2121952772 2.383301735)
(0 0.2109095454 2.381311417)
(0 0.2097021788 2.379179478)
(0 0.2085783631 2.376914978)
(0 0.2075431943 2.374524117)
(0 0.206601575 2.372012377)
(0 0.2057581693 2.369383812)
(0 0.205017373 2.366641283)
(0 0.2043831944 2.363786936)
(0 0.2038591653 2.360821486)
(0 0.2034482956 2.357744455)
(0 0.203153044 2.354555607)
(0 0.2029751539 2.351252556)
(0 0.202915743 2.347833157)
(0 0.2029751539 2.344294071)
(0 0.203153044 2.340631247)
(0 0.2034482956 2.336839676)
(0 0.2038591653 2.332913637)
(0 0.2043831944 2.32884717)
(0 0.205017373 2.324632645)
(0 0.2057581693 2.320261955)
(0 0.206601575 2.31572628)
(0 0.2075431943 2.311015844)
(0 0.2085783631 2.306119204)
(0 0.2097021788 2.301024914)
(0 0.2109095454 2.295719385)
(0 0.2121952772 2.290188551)
(6.938893904e-18 0.2135541439 2.284416914)
(-6.938893904e-18 0.214980796 2.289254427)
(-6.938893904e-18 0.214980796 2.300121307)
(0 0.2166826427 2.305972099)
(6.938893904e-18 0.2183676213 2.313087702)
(0 0.2200395465 2.321867943)
(0 0.2217021137 2.3329041)
(0 0.2233589441 2.347108126)
(-6.938893904e-18 0.2250135839 2.365965843)
(6.938893904e-18 0.2266695946 2.392066956)
(0 0.2283305228 2.430364609)
(0.09080516547 2.414000034 2.305951595)
(0.09099999815 2.414000034 2.299999952)
(0.09022147954 2.414000034 2.311877966)
(0.08925145864 2.414000034 2.317753315)
(0.08789925277 2.414000034 2.323552608)
(0.08617064357 2.414000034 2.329251051)
(0.08407303691 2.414000034 2.334824085)
(0.0816154182 2.414000034 2.340248346)
(0.0788083151 2.414000034 2.345499992)
(0.07566373795 2.414000034 2.35055685)
(0.07219515741 2.414000034 2.355397224)
(0.06841742247 2.414000034 2.360000372)
(0.06434671581 2.414000034 2.364346743)
(0.06000046805 2.414000034 2.368417501)
(0.05539729074 2.414000034 2.372195244)
(0.05055689067 2.414000034 2.375663757)
(0.04549999908 2.414000034 2.37880826)
(0.04024827108 2.414000034 2.3816154)
(0.03482419252 2.414000034 2.384073019)
(0.0292509906 2.414000034 2.386170626)
(0.02355253324 2.414000034 2.38789916)
(0.01775321923 2.414000034 2.389251471)
(0.01187788323 2.414000034 2.390221596)
(0.0059516849 2.414000034 2.390805244)
(0.0059516849 2.414000034 2.209194899)
(0.01187788323 2.414000034 2.209778547)
(0.01775321923 2.414000034 2.210748434)
(0.02355253324 2.414000034 2.212100744)
(0.0292509906 2.414000034 2.213829279)
(0.03482419252 2.414000034 2.215926886)
(0.04024827108 2.414000034 2.218384504)
(0.04549999908 2.414000034 2.221191645)
(0.05055689067 2.414000034 2.224336147)
(0.05539729074 2.414000034 2.227804899)
(0.06000046805 2.414000034 2.231582642)
(0.06434671581 2.414000034 2.2356534)
(0.06841742247 2.414000034 2.239999533)
(0.07219515741 2.414000034 2.24460268)
(0.07566373795 2.414000034 2.249443054)
(0.0788083151 2.414000034 2.254499912)
(0.0816154182 2.414000034 2.259751797)
(0.08407303691 2.414000034 2.265175819)
(0.08617064357 2.414000034 2.270749092)
(0.08789925277 2.414000034 2.276447535)
(0.08925145864 2.414000034 2.282246828)
(0.09022147954 2.414000034 2.288122177)
(0.09080516547 2.414000034 2.294048309)
(0.02355253324 0.2287909091 2.38789916)
(0.01775321923 0.2293138057 2.389251471)
(0.0292509906 0.2281323671 2.386170626)
(0.03482419252 0.2273483574 2.384073019)
(0.04024827108 0.2264510542 2.3816154)
(0.04549999908 0.2254545391 2.37880826)
(0.05055689067 0.2243746817 2.375663757)
(0.05539729074 0.2232289016 2.372195244)
(0.06000046805 0.2220358998 2.368417501)
(0.06434671581 0.2208155394 2.364346743)
(0.06841742247 0.219588384 2.360000372)
(0.07219515741 0.218375504 2.355397224)
(0.07566373795 0.217198059 2.35055685)
(0.0788083151 0.2160769552 2.345499992)
(0.0816154182 0.2150323838 2.340248346)
(0.08407303691 0.2140834481 2.334824085)
(0.08617064357 0.2132477909 2.329251051)
(0.08789925277 0.2125411034 2.323552608)
(0.08925145864 0.2119768262 2.317753315)
(0.09022147954 0.2115657926 2.311877966)
(0.09080516547 0.2113159299 2.305951595)
(0.09099999815 0.211232096 2.299999952)
(0.09080516547 0.2113159299 2.294048309)
(0.09022147954 0.2115657926 2.288122177)
(0.08925145864 0.2119768262 2.282246828)
(0.08789925277 0.2125411034 2.276447535)
(0.08617064357 0.2132477909 2.270749092)
(0.08407303691 0.2140834481 2.265175819)
(0.0816154182 0.2150323838 2.259751797)
(0.0788083151 0.2160769552 2.254499912)
(0.07566373795 0.217198059 2.249443054)
(0.07219515741 0.218375504 2.24460268)
(0.06841742247 0.219588384 2.239999533)
(0.06434671581 0.2208155394 2.2356534)
(0.06000046805 0.2220358998 2.231582642)
(0.05539729074 0.2232289016 2.227804899)
(0.04549999908 0.2254545391 2.221191645)
(0.04024827108 0.2264510542 2.218384504)
(0.03482419252 0.2273483574 2.215926886)
(0.0292509906 0.2281323671 2.213829279)
(0.02355253324 0.2287909091 2.212100744)
(0.01775321923 0.2293138057 2.210748434)
(0.01187788323 0.229693085 2.209778547)
(0.0059516849 0.2299229801 2.209194899)
(0.0059516849 0.2299229801 2.390805244)
(0.01187788323 0.229693085 2.390221596)
)


// edges:

2081
(
(714 715)
(716 714)
(717 716)
(718 717)
(719 718)
(720 719)
(721 720)
(722 721)
(723 722)
(724 723)
(725 724)
(726 725)
(727 726)
(728 727)
(729 728)
(730 729)
(731 730)
(732 731)
(733 732)
(734 733)
(735 734)
(736 735)
(737 736)
(738 737)
(739 738)
(740 739)
(741 740)
(742 741)
(743 742)
(744 743)
(745 744)
(746 745)
(747 746)
(748 747)
(749 748)
(356 353)
(353 749)
(750 353)
(751 750)
(752 751)
(753 752)
(754 753)
(755 754)
(756 755)
(757 756)
(354 757)
(758 355)
(759 758)
(715 759)
(526 527)
(527 528)
(528 529)
(529 530)
(530 531)
(531 532)
(532 533)
(533 534)
(534 535)
(535 536)
(536 537)
(537 538)
(538 539)
(539 540)
(540 541)
(541 542)
(542 543)
(543 544)
(544 545)
(545 546)
(546 547)
(547 548)
(548 549)
(549 1)
(3 3)
(3 550)
(550 551)
(551 552)
(552 553)
(553 554)
(554 555)
(555 556)
(556 557)
(557 558)
(558 559)
(559 560)
(560 561)
(561 562)
(562 563)
(563 564)
(564 565)
(565 566)
(566 567)
(567 568)
(568 569)
(569 570)
(570 571)
(571 572)
(572 526)
(573 574)
(575 573)
(576 575)
(577 576)
(578 577)
(579 578)
(580 579)
(581 580)
(582 581)
(583 582)
(584 583)
(585 584)
(586 585)
(587 586)
(588 587)
(589 588)
(590 589)
(591 590)
(592 591)
(593 592)
(594 593)