FoamFile
{
    version     2.0;
    format      ascii;
    class       dictionary;
    object      fvSchemes;
}

// ── Time discretisation ─────────────────────────────────────────────
// Fluent: Bounded Second Order Implicit  -->  OpenFOAM: backward
ddtSchemes
{
    default         backward;
}

// ── Gradient schemes ────────────────────────────────────────────────
// Fluent: Least Squares Cell Based  -->  OpenFOAM: Gauss linear
gradSchemes
{
    default         Gauss linear;
    grad(U)         Gauss linear;
    grad(nuTilda)   Gauss linear;
}

// ── Divergence (convection) schemes ─────────────────────────────────
divSchemes
{
    default         none;

    // Fluent: Bounded Central Differencing (momentum)
    // --> LUST = 75% linear + 25% linearUpwind, designed for LES/DES
    div(phi,U)              Gauss LUST grad(U);

    // Fluent: Second Order Upwind (species, energy, nuTilda)
    div(phi,H2)             Gauss limitedLinear 1;
    div(phi,CH4)            Gauss limitedLinear 1;
    div(phi,Yi_h)           Gauss limitedLinear 1;
    div(phi,K)              Gauss limitedLinear 1;
    div(phi,h)              Gauss limitedLinear 1;
    div(phi,nuTilda)        Gauss limitedLinear 1;

    div(((rho*nuEff)*dev2(T(grad(U)))))  Gauss linear;
}

// ── Laplacian schemes ───────────────────────────────────────────────
laplacianSchemes
{
    default         Gauss linear corrected;
}

// ── Interpolation schemes ───────────────────────────────────────────
interpolationSchemes
{
    default         linear;
}

// ── Surface-normal gradient schemes ─────────────────────────────────
snGradSchemes
{
    default         corrected;
}
